* NGSPICE file created from top.ext - technology: ihp-sg13g2

* Black-box entry subcircuit for sg13g2_decap_8 abstract view
.subckt sg13g2_decap_8 VDD VSS
.ends

* Black-box entry subcircuit for sg13g2_fill_2 abstract view
.subckt sg13g2_fill_2 VDD VSS
.ends

* Black-box entry subcircuit for sg13g2_nor3_1 abstract view
.subckt sg13g2_nor3_1 A B C Y VDD VSS
.ends

* Black-box entry subcircuit for sg13g2_and2_1 abstract view
.subckt sg13g2_and2_1 A B X VDD VSS
.ends

* Black-box entry subcircuit for sg13g2_decap_4 abstract view
.subckt sg13g2_decap_4 VDD VSS
.ends

* Black-box entry subcircuit for sg13g2_dlygate4sd3_1 abstract view
.subckt sg13g2_dlygate4sd3_1 A VDD VSS X
.ends

* Black-box entry subcircuit for sg13g2_fill_1 abstract view
.subckt sg13g2_fill_1 VDD VSS
.ends

* Black-box entry subcircuit for sg13g2_tiehi abstract view
.subckt sg13g2_tiehi VDD VSS L_HI
.ends

* Black-box entry subcircuit for sg13g2_a22oi_1 abstract view
.subckt sg13g2_a22oi_1 Y B1 B2 A2 A1 VDD VSS
.ends

* Black-box entry subcircuit for sg13g2_xnor2_1 abstract view
.subckt sg13g2_xnor2_1 Y A B VDD VSS
.ends

* Black-box entry subcircuit for sg13g2_a21oi_1 abstract view
.subckt sg13g2_a21oi_1 VSS VDD A1 A2 Y B1
.ends

* Black-box entry subcircuit for sg13g2_o21ai_1 abstract view
.subckt sg13g2_o21ai_1 B1 VDD Y VSS A1 A2
.ends

* Black-box entry subcircuit for sg13g2_dfrbpq_1 abstract view
.subckt sg13g2_dfrbpq_1 RESET_B VSS VDD D Q CLK
.ends

* Black-box entry subcircuit for sg13g2_nor2b_1 abstract view
.subckt sg13g2_nor2b_1 A B_N Y VDD VSS
.ends

* Black-box entry subcircuit for sg13g2_inv_1 abstract view
.subckt sg13g2_inv_1 VDD Y A VSS
.ends

* Black-box entry subcircuit for sg13g2_nand3b_1 abstract view
.subckt sg13g2_nand3b_1 B C Y VDD VSS A_N
.ends

* Black-box entry subcircuit for sg13g2_IOPadIn abstract view
.subckt sg13g2_IOPadIn iovdd iovss p2c pad vdd vss
.ends

* Black-box entry subcircuit for sg13g2_mux2_1 abstract view
.subckt sg13g2_mux2_1 A0 A1 S X VDD VSS
.ends

* Black-box entry subcircuit for sg13g2_nand3_1 abstract view
.subckt sg13g2_nand3_1 B C A Y VDD VSS
.ends

* Black-box entry subcircuit for sg13g2_Filler200 abstract view
.subckt sg13g2_Filler200 iovdd iovss vdd vss
.ends

* Black-box entry subcircuit for sg13g2_buf_1 abstract view
.subckt sg13g2_buf_1 A X VDD VSS
.ends

* Black-box entry subcircuit for sg13g2_mux4_1 abstract view
.subckt sg13g2_mux4_1 S0 A0 A1 A2 A3 S1 X VDD VSS
.ends

* Black-box entry subcircuit for sg13g2_nand2_1 abstract view
.subckt sg13g2_nand2_1 Y A B VDD VSS
.ends

* Black-box entry subcircuit for sg13g2_nor2_1 abstract view
.subckt sg13g2_nor2_1 A B Y VDD VSS
.ends

* Black-box entry subcircuit for sg13g2_nand2b_1 abstract view
.subckt sg13g2_nand2b_1 Y B A_N VDD VSS
.ends

* Black-box entry subcircuit for sg13g2_Filler400 abstract view
.subckt sg13g2_Filler400 iovdd iovss vdd vss
.ends

* Black-box entry subcircuit for sg13g2_xor2_1 abstract view
.subckt sg13g2_xor2_1 B A X VDD VSS
.ends

* Black-box entry subcircuit for bondpad_70x70 abstract view
.subckt bondpad_70x70 pad
.ends

* Black-box entry subcircuit for sg13g2_and3_1 abstract view
.subckt sg13g2_and3_1 X A B C VDD VSS
.ends

* Black-box entry subcircuit for sg13g2_nand4_1 abstract view
.subckt sg13g2_nand4_1 B C A Y VDD VSS D
.ends

* Black-box entry subcircuit for sg13g2_IOPadOut30mA abstract view
.subckt sg13g2_IOPadOut30mA c2p iovdd iovss pad vdd vss
.ends

* Black-box entry subcircuit for sg13g2_a21o_1 abstract view
.subckt sg13g2_a21o_1 A2 A1 B1 X VDD VSS
.ends

* Black-box entry subcircuit for sg13g2_buf_8 abstract view
.subckt sg13g2_buf_8 A X VDD VSS
.ends

* Black-box entry subcircuit for sg13g2_or2_1 abstract view
.subckt sg13g2_or2_1 VSS VDD X B A
.ends

* Black-box entry subcircuit for sg13g2_inv_2 abstract view
.subckt sg13g2_inv_2 Y A VDD VSS
.ends

* Black-box entry subcircuit for sg13g2_a221oi_1 abstract view
.subckt sg13g2_a221oi_1 VDD VSS B2 C1 B1 A1 Y A2
.ends

* Black-box entry subcircuit for sg13g2_or3_1 abstract view
.subckt sg13g2_or3_1 A B C X VDD VSS
.ends

* Black-box entry subcircuit for sg13g2_Corner abstract view
.subckt sg13g2_Corner iovdd iovss vdd vss
.ends

* Black-box entry subcircuit for sg13g2_inv_4 abstract view
.subckt sg13g2_inv_4 A Y VDD VSS
.ends

* Black-box entry subcircuit for sg13g2_buf_16 abstract view
.subckt sg13g2_buf_16 X A VDD VSS
.ends

* Black-box entry subcircuit for sg13g2_nor4_1 abstract view
.subckt sg13g2_nor4_1 A B C D Y VDD VSS
.ends

* Black-box entry subcircuit for sg13g2_IOPadVss abstract view
.subckt sg13g2_IOPadVss iovdd iovss vdd vss
.ends

* Black-box entry subcircuit for sg13g2_or4_1 abstract view
.subckt sg13g2_or4_1 A B C D X VDD VSS
.ends

* Black-box entry subcircuit for sg13g2_and4_1 abstract view
.subckt sg13g2_and4_1 A B C D X VDD VSS
.ends

* Black-box entry subcircuit for sg13g2_IOPadIOVss abstract view
.subckt sg13g2_IOPadIOVss iovdd iovss vdd vss
.ends

* Black-box entry subcircuit for sg13g2_IOPadIOVdd abstract view
.subckt sg13g2_IOPadIOVdd iovdd iovss vdd vss
.ends

* Black-box entry subcircuit for sg13g2_IOPadVdd abstract view
.subckt sg13g2_IOPadVdd iovdd iovss vdd vss
.ends

.subckt top IOVDD IOVSS VDD VSS clk_PAD in_data_PADs[0] in_data_PADs[1] in_data_PADs[2]
+ in_data_PADs[3] in_data_PADs[4] in_data_PADs[5] in_data_PADs[6] in_data_PADs[7]
+ in_ready_PAD in_valid_PAD out_data_PADs[0] out_data_PADs[1] out_data_PADs[2] out_data_PADs[3]
+ out_data_PADs[4] out_data_PADs[5] out_data_PADs[6] out_data_PADs[7] out_ready_PAD
+ out_valid_PAD rst_n_PAD
XFILLER_79_391 VDD VSS sg13g2_decap_8
XFILLER_67_553 VDD VSS sg13g2_decap_8
XFILLER_54_203 VDD VSS sg13g2_decap_8
XFILLER_27_406 VDD VSS sg13g2_decap_8
XFILLER_39_266 VDD VSS sg13g2_decap_8
XFILLER_82_534 VDD VSS sg13g2_decap_8
XFILLER_55_748 VDD VSS sg13g2_decap_8
XFILLER_54_214 VDD VSS sg13g2_fill_2
X_2106_ _2106_/A _2106_/B _2106_/C _2106_/Y VDD VSS sg13g2_nor3_1
X_2037_ _2037_/A _2037_/B _2037_/X VDD VSS sg13g2_and2_1
XFILLER_36_973 VDD VSS sg13g2_decap_8
XFILLER_51_932 VDD VSS sg13g2_decap_8
XFILLER_23_623 VDD VSS sg13g2_decap_8
XFILLER_35_483 VDD VSS sg13g2_decap_8
XFILLER_62_280 VDD VSS sg13g2_decap_8
XFILLER_22_133 VDD VSS sg13g2_decap_8
XFILLER_50_486 VDD VSS sg13g2_decap_4
XFILLER_50_497 VDD VSS sg13g2_decap_8
XFILLER_109_728 VDD VSS sg13g2_decap_8
XFILLER_105_945 VDD VSS sg13g2_decap_8
Xhold362 _2193_/Q VDD VSS hold362/X sg13g2_dlygate4sd3_1
Xhold351 _2177_/Q VDD VSS hold351/X sg13g2_dlygate4sd3_1
Xhold340 _2264_/Q VDD VSS _1487_/A sg13g2_dlygate4sd3_1
XFILLER_7_7 VDD VSS sg13g2_decap_8
XFILLER_81_1029 VDD VSS sg13g2_fill_1
XFILLER_104_444 VDD VSS sg13g2_decap_8
XFILLER_89_133 VDD VSS sg13g2_decap_8
Xhold395 _1268_/Y VDD VSS _1269_/A sg13g2_dlygate4sd3_1
Xhold384 _1310_/Y VDD VSS _1311_/A sg13g2_dlygate4sd3_1
Xhold373 _2255_/Q VDD VSS _1198_/A sg13g2_dlygate4sd3_1
X_2205__130 VDD VSS _2205_/RESET_B sg13g2_tiehi
XFILLER_100_661 VDD VSS sg13g2_decap_8
XFILLER_86_862 VDD VSS sg13g2_decap_8
XFILLER_93_14 VDD VSS sg13g2_decap_8
XFILLER_46_726 VDD VSS sg13g2_decap_8
XFILLER_18_406 VDD VSS sg13g2_decap_8
XFILLER_73_545 VDD VSS sg13g2_decap_8
XFILLER_85_383 VDD VSS sg13g2_decap_8
XFILLER_45_203 VDD VSS sg13g2_decap_8
XFILLER_73_556 VDD VSS sg13g2_fill_1
XFILLER_73_567 VDD VSS sg13g2_decap_8
XFILLER_27_973 VDD VSS sg13g2_decap_8
XFILLER_61_707 VDD VSS sg13g2_decap_8
XFILLER_45_269 VDD VSS sg13g2_decap_8
XFILLER_42_910 VDD VSS sg13g2_decap_8
XFILLER_60_228 VDD VSS sg13g2_decap_8
XFILLER_14_623 VDD VSS sg13g2_decap_8
XFILLER_26_63 VDD VSS sg13g2_decap_8
XFILLER_26_483 VDD VSS sg13g2_decap_8
XFILLER_13_133 VDD VSS sg13g2_decap_8
XFILLER_42_987 VDD VSS sg13g2_decap_8
XFILLER_9_126 VDD VSS sg13g2_decap_8
XFILLER_10_840 VDD VSS sg13g2_decap_8
XFILLER_42_84 VDD VSS sg13g2_decap_8
XFILLER_6_833 VDD VSS sg13g2_decap_8
XFILLER_5_343 VDD VSS sg13g2_decap_8
XFILLER_108_794 VDD VSS sg13g2_decap_8
XFILLER_96_637 VDD VSS sg13g2_decap_8
XFILLER_110_403 VDD VSS sg13g2_decap_8
XFILLER_3_56 VDD VSS sg13g2_decap_8
XFILLER_1_560 VDD VSS sg13g2_decap_8
XFILLER_111_959 VDD VSS sg13g2_decap_8
X_1270_ _1270_/Y _1280_/B1 hold325/X _1280_/A2 _2315_/Q VDD VSS sg13g2_a22oi_1
XFILLER_77_851 VDD VSS sg13g2_fill_1
XFILLER_95_147 VDD VSS sg13g2_decap_8
XFILLER_77_884 VDD VSS sg13g2_decap_8
XFILLER_76_350 VDD VSS sg13g2_decap_8
XFILLER_67_70 VDD VSS sg13g2_decap_8
XFILLER_97_1036 VDD VSS sg13g2_decap_8
XFILLER_76_394 VDD VSS sg13g2_decap_8
XFILLER_49_586 VDD VSS sg13g2_fill_2
XFILLER_3_1029 VDD VSS sg13g2_decap_8
XFILLER_36_203 VDD VSS sg13g2_decap_8
XFILLER_92_854 VDD VSS sg13g2_decap_8
XFILLER_64_578 VDD VSS sg13g2_decap_8
XFILLER_18_973 VDD VSS sg13g2_decap_8
XFILLER_91_375 VDD VSS sg13g2_decap_8
XFILLER_33_910 VDD VSS sg13g2_decap_8
XFILLER_17_483 VDD VSS sg13g2_decap_8
XFILLER_83_91 VDD VSS sg13g2_decap_8
XFILLER_32_420 VDD VSS sg13g2_decap_8
XFILLER_33_987 VDD VSS sg13g2_decap_8
XFILLER_20_637 VDD VSS sg13g2_decap_8
XFILLER_32_497 VDD VSS sg13g2_decap_8
XFILLER_9_693 VDD VSS sg13g2_decap_8
XFILLER_66_0 VDD VSS sg13g2_decap_8
XFILLER_105_208 VDD VSS sg13g2_decap_8
X_2187__166 VDD VSS _2187_/RESET_B sg13g2_tiehi
X_1606_ _1618_/A _1606_/A _1606_/B VDD VSS sg13g2_xnor2_1
XFILLER_99_442 VDD VSS sg13g2_fill_1
XFILLER_87_637 VDD VSS sg13g2_decap_8
XFILLER_99_497 VDD VSS sg13g2_decap_8
X_1537_ VSS VDD _1556_/S0 _1214_/Y _1537_/Y _1523_/B sg13g2_a21oi_1
XFILLER_59_328 VDD VSS sg13g2_fill_1
XFILLER_59_317 VDD VSS sg13g2_decap_8
X_1468_ _1367_/A VDD _1468_/Y VSS _1370_/A _1481_/A2 sg13g2_o21ai_1
X_2298__117 VDD VSS _2298_/RESET_B sg13g2_tiehi
XFILLER_110_970 VDD VSS sg13g2_decap_8
XFILLER_101_458 VDD VSS sg13g2_decap_8
X_1399_ _1400_/A _1392_/Y hold483/X _1392_/B _1376_/A VDD VSS sg13g2_a22oi_1
XFILLER_41_1035 VDD VSS sg13g2_decap_8
XFILLER_68_862 VDD VSS sg13g2_decap_8
XFILLER_67_350 VDD VSS sg13g2_decap_8
XFILLER_55_501 VDD VSS sg13g2_decap_8
X_2339__147 VDD VSS _2339_/RESET_B sg13g2_tiehi
XFILLER_67_394 VDD VSS sg13g2_decap_8
XFILLER_67_372 VDD VSS sg13g2_decap_4
XFILLER_27_203 VDD VSS sg13g2_decap_8
XFILLER_82_342 VDD VSS sg13g2_decap_8
XFILLER_103_35 VDD VSS sg13g2_decap_8
XFILLER_55_567 VDD VSS sg13g2_decap_8
XFILLER_36_770 VDD VSS sg13g2_decap_8
XFILLER_24_910 VDD VSS sg13g2_decap_8
XFILLER_63_28 VDD VSS sg13g2_decap_8
XFILLER_23_420 VDD VSS sg13g2_decap_8
XFILLER_35_280 VDD VSS sg13g2_decap_8
XFILLER_24_987 VDD VSS sg13g2_decap_8
XFILLER_51_751 VDD VSS sg13g2_decap_8
XFILLER_11_637 VDD VSS sg13g2_decap_8
XFILLER_23_497 VDD VSS sg13g2_decap_8
XFILLER_50_283 VDD VSS sg13g2_decap_8
XFILLER_10_147 VDD VSS sg13g2_decap_8
XFILLER_12_21 VDD VSS sg13g2_decap_8
XFILLER_109_525 VDD VSS sg13g2_decap_8
XFILLER_88_14 VDD VSS sg13g2_decap_8
XFILLER_12_98 VDD VSS sg13g2_decap_8
XFILLER_3_847 VDD VSS sg13g2_decap_8
XFILLER_105_742 VDD VSS sg13g2_decap_8
XFILLER_2_357 VDD VSS sg13g2_decap_8
XFILLER_104_252 VDD VSS sg13g2_decap_8
XFILLER_78_659 VDD VSS sg13g2_decap_8
XFILLER_77_147 VDD VSS sg13g2_decap_8
XFILLER_101_970 VDD VSS sg13g2_decap_8
XFILLER_93_607 VDD VSS sg13g2_decap_8
XFILLER_74_821 VDD VSS sg13g2_decap_8
XFILLER_92_117 VDD VSS sg13g2_decap_4
XFILLER_58_372 VDD VSS sg13g2_decap_4
XFILLER_18_203 VDD VSS sg13g2_decap_8
XFILLER_100_491 VDD VSS sg13g2_fill_1
XFILLER_34_707 VDD VSS sg13g2_decap_8
XFILLER_37_84 VDD VSS sg13g2_decap_8
XFILLER_74_898 VDD VSS sg13g2_decap_8
XFILLER_73_386 VDD VSS sg13g2_decap_8
XFILLER_27_770 VDD VSS sg13g2_decap_8
XFILLER_61_515 VDD VSS sg13g2_decap_8
XFILLER_15_910 VDD VSS sg13g2_decap_8
XFILLER_33_217 VDD VSS sg13g2_decap_8
X_2253__245 VDD VSS _2253_/RESET_B sg13g2_tiehi
XFILLER_57_1053 VDD VSS sg13g2_decap_8
XFILLER_57_1031 VDD VSS sg13g2_decap_4
XFILLER_14_420 VDD VSS sg13g2_decap_8
XFILLER_26_280 VDD VSS sg13g2_decap_8
XFILLER_30_924 VDD VSS sg13g2_decap_8
XFILLER_15_987 VDD VSS sg13g2_decap_8
XFILLER_18_1015 VDD VSS sg13g2_decap_8
XFILLER_42_784 VDD VSS sg13g2_decap_8
XFILLER_14_497 VDD VSS sg13g2_decap_8
XFILLER_53_83 VDD VSS sg13g2_decap_4
XFILLER_105_1029 VDD VSS sg13g2_decap_8
XFILLER_41_294 VDD VSS sg13g2_decap_8
XFILLER_6_630 VDD VSS sg13g2_decap_8
XFILLER_5_140 VDD VSS sg13g2_decap_8
XFILLER_108_591 VDD VSS sg13g2_decap_8
XFILLER_97_902 VDD VSS sg13g2_decap_8
X_2371_ _2371_/RESET_B VSS VDD _2371_/D _2371_/Q _2371_/CLK sg13g2_dfrbpq_1
XFILLER_64_1035 VDD VSS sg13g2_decap_8
XFILLER_68_103 VDD VSS sg13g2_decap_8
XFILLER_111_756 VDD VSS sg13g2_decap_8
X_1322_ _1322_/Y _1322_/B1 hold304/X _1322_/A2 _2324_/Q VDD VSS sg13g2_a22oi_1
XFILLER_96_434 VDD VSS sg13g2_decap_8
XFILLER_78_91 VDD VSS sg13g2_decap_8
XFILLER_25_1008 VDD VSS sg13g2_decap_8
XFILLER_110_266 VDD VSS sg13g2_decap_8
X_1253_ _1501_/A _1252_/Y _1265_/B VDD VSS sg13g2_nor2b_1
XFILLER_68_169 VDD VSS sg13g2_decap_8
XFILLER_77_681 VDD VSS sg13g2_decap_8
XFILLER_37_567 VDD VSS sg13g2_decap_8
XFILLER_25_707 VDD VSS sg13g2_decap_8
XFILLER_91_150 VDD VSS sg13g2_decap_8
XFILLER_52_526 VDD VSS sg13g2_decap_8
XFILLER_18_770 VDD VSS sg13g2_decap_8
XFILLER_24_217 VDD VSS sg13g2_decap_8
XFILLER_80_846 VDD VSS sg13g2_decap_4
XFILLER_17_280 VDD VSS sg13g2_decap_8
XFILLER_21_924 VDD VSS sg13g2_decap_8
XFILLER_33_784 VDD VSS sg13g2_decap_8
XFILLER_20_434 VDD VSS sg13g2_decap_8
XFILLER_32_294 VDD VSS sg13g2_decap_8
XFILLER_9_490 VDD VSS sg13g2_decap_8
XFILLER_106_539 VDD VSS sg13g2_decap_4
XFILLER_59_103 VDD VSS sg13g2_decap_8
XFILLER_102_756 VDD VSS sg13g2_fill_1
XFILLER_87_423 VDD VSS sg13g2_decap_8
XFILLER_88_979 VDD VSS sg13g2_decap_8
XFILLER_102_789 VDD VSS sg13g2_fill_1
XFILLER_101_255 VDD VSS sg13g2_decap_8
XFILLER_87_489 VDD VSS sg13g2_decap_4
XFILLER_83_640 VDD VSS sg13g2_decap_8
XFILLER_74_49 VDD VSS sg13g2_decap_8
XFILLER_56_843 VDD VSS sg13g2_decap_8
XFILLER_28_567 VDD VSS sg13g2_decap_8
XFILLER_16_707 VDD VSS sg13g2_decap_8
XFILLER_83_684 VDD VSS sg13g2_decap_8
XFILLER_15_217 VDD VSS sg13g2_decap_8
X_2317__242 VDD VSS _2317_/RESET_B sg13g2_tiehi
XFILLER_70_334 VDD VSS sg13g2_fill_1
XFILLER_43_559 VDD VSS sg13g2_decap_4
XFILLER_24_784 VDD VSS sg13g2_decap_8
XFILLER_12_924 VDD VSS sg13g2_decap_8
XFILLER_11_434 VDD VSS sg13g2_decap_8
XFILLER_8_917 VDD VSS sg13g2_decap_8
XFILLER_23_42 VDD VSS sg13g2_decap_8
XFILLER_23_294 VDD VSS sg13g2_decap_8
XFILLER_7_427 VDD VSS sg13g2_decap_8
XFILLER_109_333 VDD VSS sg13g2_decap_8
XFILLER_99_35 VDD VSS sg13g2_decap_8
XFILLER_109_399 VDD VSS sg13g2_decap_8
XFILLER_79_902 VDD VSS sg13g2_fill_1
XFILLER_3_644 VDD VSS sg13g2_decap_8
XFILLER_2_154 VDD VSS sg13g2_decap_8
XFILLER_79_968 VDD VSS sg13g2_decap_8
XFILLER_94_927 VDD VSS sg13g2_decap_8
XFILLER_78_478 VDD VSS sg13g2_decap_8
XFILLER_87_990 VDD VSS sg13g2_decap_8
XFILLER_78_489 VDD VSS sg13g2_fill_1
XFILLER_59_692 VDD VSS sg13g2_fill_2
XFILLER_47_810 VDD VSS sg13g2_decap_8
XFILLER_111_1022 VDD VSS sg13g2_decap_8
XFILLER_58_180 VDD VSS sg13g2_decap_8
XFILLER_0_35 VDD VSS sg13g2_decap_8
XFILLER_73_150 VDD VSS sg13g2_decap_8
XFILLER_19_567 VDD VSS sg13g2_decap_8
XFILLER_34_504 VDD VSS sg13g2_decap_8
XFILLER_74_695 VDD VSS sg13g2_decap_8
XFILLER_73_194 VDD VSS sg13g2_decap_8
XFILLER_62_857 VDD VSS sg13g2_decap_8
XFILLER_61_312 VDD VSS sg13g2_decap_8
XFILLER_46_386 VDD VSS sg13g2_decap_8
X_1940_ _2003_/B _1940_/A _1999_/A VDD VSS sg13g2_xnor2_1
XFILLER_42_581 VDD VSS sg13g2_decap_8
XFILLER_30_721 VDD VSS sg13g2_decap_8
XFILLER_15_784 VDD VSS sg13g2_decap_8
X_1871_ VDD _2162_/A _2086_/A VSS sg13g2_inv_1
XFILLER_14_294 VDD VSS sg13g2_decap_8
XFILLER_9_77 VDD VSS sg13g2_decap_8
XFILLER_80_70 VDD VSS sg13g2_decap_8
XFILLER_31_1001 VDD VSS sg13g2_decap_8
XFILLER_30_798 VDD VSS sg13g2_decap_8
XFILLER_7_994 VDD VSS sg13g2_decap_8
X_2354_ _2354_/RESET_B VSS VDD _2354_/D _2354_/Q clkload2/A sg13g2_dfrbpq_1
XFILLER_111_553 VDD VSS sg13g2_decap_8
X_1305_ VDD _2182_/D _1305_/A VSS sg13g2_inv_1
XFILLER_96_231 VDD VSS sg13g2_decap_8
XFILLER_57_618 VDD VSS sg13g2_decap_8
XFILLER_9_1057 VDD VSS sg13g2_decap_4
XFILLER_29_0 VDD VSS sg13g2_decap_8
XFILLER_38_821 VDD VSS sg13g2_decap_8
XFILLER_56_117 VDD VSS sg13g2_decap_8
X_2285_ _2285_/RESET_B VSS VDD _2285_/D _2285_/Q clkload2/A sg13g2_dfrbpq_1
XFILLER_84_459 VDD VSS sg13g2_decap_8
XFILLER_65_651 VDD VSS sg13g2_decap_8
X_1236_ _1500_/B _1236_/C _1236_/Y VDD VSS _1226_/B sg13g2_nand3b_1
XFILLER_92_470 VDD VSS sg13g2_decap_8
XFILLER_53_824 VDD VSS sg13g2_decap_8
XFILLER_38_898 VDD VSS sg13g2_decap_8
XFILLER_64_150 VDD VSS sg13g2_decap_8
XFILLER_25_504 VDD VSS sg13g2_decap_8
XFILLER_37_364 VDD VSS sg13g2_decap_8
XFILLER_52_334 VDD VSS sg13g2_decap_8
XFILLER_52_345 VDD VSS sg13g2_fill_2
XFILLER_100_14 VDD VSS sg13g2_decap_8
XFILLER_33_581 VDD VSS sg13g2_decap_8
XFILLER_21_721 VDD VSS sg13g2_decap_8
XFILLER_52_389 VDD VSS sg13g2_fill_2
XFILLER_20_231 VDD VSS sg13g2_decap_8
XFILLER_21_798 VDD VSS sg13g2_decap_8
XFILLER_109_56 VDD VSS sg13g2_decap_8
XFILLER_106_358 VDD VSS sg13g2_decap_8
XFILLER_107_7 VDD VSS sg13g2_decap_8
XFILLER_69_49 VDD VSS sg13g2_decap_8
Xin_data_pads\[4\].in_data_pad IOVDD IOVSS _1379_/A in_data_PADs[4] VDD VSS sg13g2_IOPadIn
XFILLER_88_743 VDD VSS sg13g2_decap_8
XFILLER_88_721 VDD VSS sg13g2_decap_4
XFILLER_47_1041 VDD VSS sg13g2_decap_8
XFILLER_102_542 VDD VSS sg13g2_decap_8
XFILLER_75_404 VDD VSS sg13g2_decap_8
XFILLER_0_658 VDD VSS sg13g2_decap_8
XFILLER_87_297 VDD VSS sg13g2_fill_2
XFILLER_91_919 VDD VSS sg13g2_decap_8
XFILLER_56_651 VDD VSS sg13g2_decap_8
XFILLER_29_854 VDD VSS sg13g2_decap_8
XFILLER_18_42 VDD VSS sg13g2_decap_8
XFILLER_47_139 VDD VSS sg13g2_decap_8
XFILLER_16_504 VDD VSS sg13g2_decap_8
XFILLER_55_161 VDD VSS sg13g2_decap_8
XFILLER_28_364 VDD VSS sg13g2_decap_8
XFILLER_71_654 VDD VSS sg13g2_decap_8
XFILLER_44_879 VDD VSS sg13g2_decap_8
XFILLER_31_518 VDD VSS sg13g2_decap_8
XFILLER_70_175 VDD VSS sg13g2_decap_8
XFILLER_54_1023 VDD VSS sg13g2_fill_2
XFILLER_24_581 VDD VSS sg13g2_decap_8
XFILLER_12_721 VDD VSS sg13g2_decap_8
XFILLER_34_63 VDD VSS sg13g2_decap_8
XFILLER_43_378 VDD VSS sg13g2_decap_8
XFILLER_11_231 VDD VSS sg13g2_decap_8
XFILLER_8_714 VDD VSS sg13g2_decap_8
XFILLER_12_798 VDD VSS sg13g2_decap_8
XFILLER_15_1029 VDD VSS sg13g2_decap_8
XFILLER_7_224 VDD VSS sg13g2_decap_8
XFILLER_50_51 VDD VSS sg13g2_decap_8
XFILLER_109_196 VDD VSS sg13g2_decap_8
XFILLER_4_931 VDD VSS sg13g2_decap_8
XFILLER_98_518 VDD VSS sg13g2_decap_8
XFILLER_3_441 VDD VSS sg13g2_decap_8
XFILLER_106_881 VDD VSS sg13g2_decap_8
XFILLER_79_743 VDD VSS sg13g2_decap_8
XFILLER_61_1005 VDD VSS sg13g2_decap_8
XFILLER_22_7 VDD VSS sg13g2_decap_8
XFILLER_59_82 VDD VSS sg13g2_decap_4
XFILLER_94_713 VDD VSS sg13g2_decap_8
XFILLER_94_779 VDD VSS sg13g2_decap_8
X_2070_ _2057_/X _2069_/X _2079_/S _2071_/C VDD VSS sg13g2_mux2_1
XFILLER_93_289 VDD VSS sg13g2_decap_8
XFILLER_75_70 VDD VSS sg13g2_decap_8
XFILLER_47_684 VDD VSS sg13g2_decap_8
XFILLER_47_651 VDD VSS sg13g2_decap_8
XFILLER_19_364 VDD VSS sg13g2_decap_8
XFILLER_90_930 VDD VSS sg13g2_decap_8
XFILLER_62_610 VDD VSS sg13g2_decap_8
XFILLER_34_301 VDD VSS sg13g2_decap_8
XFILLER_90_963 VDD VSS sg13g2_fill_1
XFILLER_50_805 VDD VSS sg13g2_decap_8
XFILLER_35_868 VDD VSS sg13g2_decap_8
XFILLER_15_581 VDD VSS sg13g2_decap_8
XFILLER_61_164 VDD VSS sg13g2_decap_8
XFILLER_22_518 VDD VSS sg13g2_decap_8
XFILLER_34_378 VDD VSS sg13g2_decap_8
X_1923_ _1921_/Y _1922_/Y _1954_/S _1924_/B VDD VSS sg13g2_mux2_1
XFILLER_91_91 VDD VSS sg13g2_decap_8
XFILLER_30_595 VDD VSS sg13g2_decap_8
X_1854_ _1866_/A _1854_/C _1854_/A _1869_/A VDD VSS sg13g2_nand3_1
XIO_FILL_IO_SOUTH_3_0 IOVDD IOVSS VDD VSS sg13g2_Filler200
X_1785_ _1900_/B _2213_/Q _2221_/Q VDD VSS sg13g2_xnor2_1
Xfanout7 _2054_/S _2021_/S VDD VSS sg13g2_buf_1
XFILLER_7_791 VDD VSS sg13g2_decap_8
XFILLER_112_840 VDD VSS sg13g2_decap_8
XFILLER_69_253 VDD VSS sg13g2_decap_8
XFILLER_97_584 VDD VSS sg13g2_decap_8
XFILLER_85_735 VDD VSS sg13g2_decap_8
X_2337_ _2337_/RESET_B VSS VDD _2337_/D _2337_/Q _2337_/CLK sg13g2_dfrbpq_1
XFILLER_111_350 VDD VSS sg13g2_decap_8
XFILLER_57_404 VDD VSS sg13g2_decap_8
XFILLER_73_919 VDD VSS sg13g2_fill_2
XFILLER_73_908 VDD VSS sg13g2_decap_8
XFILLER_84_234 VDD VSS sg13g2_decap_8
X_2268_ _2268_/RESET_B VSS VDD _2268_/D _2268_/Q _2289_/CLK sg13g2_dfrbpq_1
XFILLER_84_278 VDD VSS sg13g2_decap_8
XFILLER_72_407 VDD VSS sg13g2_decap_8
X_1219_ _1236_/C _1502_/A _2364_/D VDD VSS sg13g2_and2_1
X_2199_ _2199_/RESET_B VSS VDD _2199_/D _2199_/Q _2371_/CLK sg13g2_dfrbpq_1
XFILLER_66_993 VDD VSS sg13g2_decap_8
XFILLER_38_695 VDD VSS sg13g2_decap_8
XFILLER_37_161 VDD VSS sg13g2_decap_8
XFILLER_25_301 VDD VSS sg13g2_decap_8
XFILLER_81_974 VDD VSS sg13g2_decap_8
XFILLER_77_1056 VDD VSS sg13g2_decap_4
XFILLER_111_35 VDD VSS sg13g2_decap_8
XFILLER_26_868 VDD VSS sg13g2_decap_8
XFILLER_52_131 VDD VSS sg13g2_decap_8
XFILLER_80_495 VDD VSS sg13g2_decap_8
XFILLER_71_28 VDD VSS sg13g2_decap_8
XFILLER_13_518 VDD VSS sg13g2_decap_8
XFILLER_25_378 VDD VSS sg13g2_decap_8
XFILLER_21_595 VDD VSS sg13g2_decap_8
XFILLER_5_728 VDD VSS sg13g2_decap_8
XFILLER_106_133 VDD VSS sg13g2_decap_8
XFILLER_4_238 VDD VSS sg13g2_decap_8
XFILLER_20_21 VDD VSS sg13g2_decap_8
XFILLER_84_1016 VDD VSS sg13g2_decap_8
XFILLER_107_667 VDD VSS sg13g2_decap_8
XFILLER_96_14 VDD VSS sg13g2_decap_8
XFILLER_20_98 VDD VSS sg13g2_decap_8
XFILLER_1_945 VDD VSS sg13g2_decap_8
XFILLER_0_455 VDD VSS sg13g2_decap_8
XFILLER_103_884 VDD VSS sg13g2_fill_2
XFILLER_76_713 VDD VSS sg13g2_decap_8
XFILLER_102_361 VDD VSS sg13g2_decap_8
XFILLER_49_938 VDD VSS sg13g2_decap_8
XFILLER_60_1060 VDD VSS sg13g2_fill_1
XFILLER_64_908 VDD VSS sg13g2_decap_8
XFILLER_29_63 VDD VSS sg13g2_decap_8
XFILLER_48_437 VDD VSS sg13g2_decap_8
XFILLER_75_278 VDD VSS sg13g2_decap_8
XFILLER_21_1022 VDD VSS sg13g2_decap_8
XFILLER_29_651 VDD VSS sg13g2_decap_8
XFILLER_91_738 VDD VSS sg13g2_decap_8
XFILLER_57_993 VDD VSS sg13g2_decap_8
XFILLER_16_301 VDD VSS sg13g2_decap_8
XFILLER_28_161 VDD VSS sg13g2_decap_8
XFILLER_44_676 VDD VSS sg13g2_decap_8
XFILLER_44_665 VDD VSS sg13g2_fill_2
XFILLER_32_805 VDD VSS sg13g2_decap_8
XFILLER_17_868 VDD VSS sg13g2_decap_8
X_2215__110 VDD VSS _2215_/RESET_B sg13g2_tiehi
XFILLER_71_495 VDD VSS sg13g2_decap_8
XFILLER_16_378 VDD VSS sg13g2_decap_8
XFILLER_45_84 VDD VSS sg13g2_decap_8
XFILLER_31_315 VDD VSS sg13g2_decap_8
XFILLER_43_175 VDD VSS sg13g2_decap_8
XFILLER_8_511 VDD VSS sg13g2_decap_8
XFILLER_40_893 VDD VSS sg13g2_decap_8
XFILLER_12_595 VDD VSS sg13g2_decap_8
XFILLER_8_588 VDD VSS sg13g2_decap_8
X_1570_ _1577_/S0 _2241_/Q _2233_/Q _2225_/Q _2217_/Q _2287_/Q _1571_/A VDD VSS sg13g2_mux4_1
XFILLER_6_56 VDD VSS sg13g2_decap_8
XFILLER_79_540 VDD VSS sg13g2_decap_8
XFILLER_112_147 VDD VSS sg13g2_decap_8
XFILLER_79_584 VDD VSS sg13g2_decap_8
XFILLER_39_415 VDD VSS sg13g2_decap_8
XFILLER_86_91 VDD VSS sg13g2_fill_2
X_2122_ VSS VDD _2117_/Y _2120_/Y _2122_/Y _2121_/Y sg13g2_a21oi_1
XFILLER_66_223 VDD VSS sg13g2_decap_8
XFILLER_66_234 VDD VSS sg13g2_fill_1
XFILLER_94_587 VDD VSS sg13g2_decap_8
XFILLER_82_716 VDD VSS sg13g2_decap_8
XFILLER_48_960 VDD VSS sg13g2_fill_2
XFILLER_54_418 VDD VSS sg13g2_decap_8
X_2053_ _2052_/Y VDD _2336_/D VSS _2025_/A _2075_/B sg13g2_o21ai_1
XFILLER_19_161 VDD VSS sg13g2_decap_8
XFILLER_47_481 VDD VSS sg13g2_decap_8
XFILLER_63_963 VDD VSS sg13g2_fill_2
XFILLER_35_665 VDD VSS sg13g2_decap_8
XFILLER_23_805 VDD VSS sg13g2_decap_8
XFILLER_63_996 VDD VSS sg13g2_decap_8
XFILLER_62_484 VDD VSS sg13g2_decap_8
XFILLER_22_315 VDD VSS sg13g2_decap_8
XFILLER_34_175 VDD VSS sg13g2_decap_8
XFILLER_96_0 VDD VSS sg13g2_decap_8
XFILLER_50_657 VDD VSS sg13g2_decap_8
XFILLER_31_882 VDD VSS sg13g2_decap_8
X_2233__287 VDD VSS _2233_/RESET_B sg13g2_tiehi
X_1906_ _1906_/Y _1907_/A _1907_/B VDD VSS sg13g2_nand2_1
XFILLER_30_392 VDD VSS sg13g2_decap_8
X_1837_ _1921_/A _2247_/Q _2206_/Q VDD VSS sg13g2_xnor2_1
Xhold511 _2282_/Q VDD VSS hold511/X sg13g2_dlygate4sd3_1
Xhold500 _2294_/Q VDD VSS hold500/X sg13g2_dlygate4sd3_1
X_1768_ _1927_/A _1769_/B _1948_/B VDD VSS sg13g2_nor2_1
Xhold544 _1636_/Y VDD VSS _2296_/D sg13g2_dlygate4sd3_1
Xhold533 _1631_/Y VDD VSS _1632_/B sg13g2_dlygate4sd3_1
Xhold522 _2261_/Q VDD VSS hold522/X sg13g2_dlygate4sd3_1
X_1699_ _1699_/Y _1720_/A _1699_/B VDD VSS sg13g2_nand2_1
XFILLER_104_626 VDD VSS sg13g2_decap_8
Xhold566 _2366_/Q VDD VSS hold566/X sg13g2_dlygate4sd3_1
Xhold555 _2265_/Q VDD VSS hold555/X sg13g2_dlygate4sd3_1
XFILLER_106_35 VDD VSS sg13g2_decap_8
XFILLER_103_147 VDD VSS sg13g2_decap_8
XFILLER_85_510 VDD VSS sg13g2_fill_1
XFILLER_44_1033 VDD VSS sg13g2_decap_8
XFILLER_58_735 VDD VSS sg13g2_decap_8
XFILLER_100_854 VDD VSS sg13g2_decap_8
XFILLER_85_554 VDD VSS sg13g2_decap_8
XFILLER_66_28 VDD VSS sg13g2_decap_8
X_2197__146 VDD VSS _2197_/RESET_B sg13g2_tiehi
XFILLER_54_941 VDD VSS sg13g2_decap_8
XFILLER_38_481 VDD VSS sg13g2_decap_8
XFILLER_26_665 VDD VSS sg13g2_decap_8
XFILLER_14_805 VDD VSS sg13g2_decap_8
XFILLER_81_793 VDD VSS sg13g2_fill_1
XFILLER_82_49 VDD VSS sg13g2_decap_8
XFILLER_53_484 VDD VSS sg13g2_decap_8
XFILLER_13_315 VDD VSS sg13g2_decap_8
XFILLER_15_21 VDD VSS sg13g2_decap_8
XFILLER_25_175 VDD VSS sg13g2_decap_8
XFILLER_41_657 VDD VSS sg13g2_decap_8
XFILLER_40_112 VDD VSS sg13g2_decap_8
XFILLER_9_308 VDD VSS sg13g2_decap_8
XFILLER_15_98 VDD VSS sg13g2_decap_8
X_2349__105 VDD VSS _2349_/RESET_B sg13g2_tiehi
XFILLER_22_882 VDD VSS sg13g2_decap_8
XFILLER_40_189 VDD VSS sg13g2_decap_8
XFILLER_51_1059 VDD VSS sg13g2_fill_2
XFILLER_31_42 VDD VSS sg13g2_decap_8
XFILLER_21_392 VDD VSS sg13g2_decap_8
X_2249__250 VDD VSS _2249_/RESET_B sg13g2_tiehi
XFILLER_5_525 VDD VSS sg13g2_decap_8
XFILLER_108_976 VDD VSS sg13g2_decap_8
XFILLER_96_808 VDD VSS sg13g2_decap_8
XFILLER_1_742 VDD VSS sg13g2_decap_8
XFILLER_95_307 VDD VSS sg13g2_decap_8
XFILLER_0_252 VDD VSS sg13g2_decap_8
XFILLER_48_267 VDD VSS sg13g2_decap_8
XFILLER_91_535 VDD VSS sg13g2_decap_8
XFILLER_56_83 VDD VSS sg13g2_decap_4
XFILLER_60_900 VDD VSS sg13g2_decap_8
XFILLER_63_248 VDD VSS sg13g2_decap_8
XFILLER_17_665 VDD VSS sg13g2_decap_8
XFILLER_45_996 VDD VSS sg13g2_decap_8
XFILLER_32_602 VDD VSS sg13g2_decap_8
XFILLER_16_175 VDD VSS sg13g2_decap_8
X_2291__145 VDD VSS _2291_/RESET_B sg13g2_tiehi
XFILLER_31_112 VDD VSS sg13g2_decap_8
XFILLER_44_495 VDD VSS sg13g2_decap_4
XFILLER_32_679 VDD VSS sg13g2_decap_8
XFILLER_20_819 VDD VSS sg13g2_decap_8
XFILLER_40_690 VDD VSS sg13g2_decap_8
XFILLER_13_882 VDD VSS sg13g2_decap_8
XFILLER_31_189 VDD VSS sg13g2_decap_8
XFILLER_12_392 VDD VSS sg13g2_decap_8
XFILLER_9_875 VDD VSS sg13g2_decap_8
XFILLER_8_385 VDD VSS sg13g2_decap_8
X_1622_ _1628_/A _2294_/Q _2279_/Q VDD VSS sg13g2_xnor2_1
XFILLER_99_646 VDD VSS sg13g2_fill_2
XFILLER_98_112 VDD VSS sg13g2_decap_8
X_1553_ _1552_/Y VDD _1553_/Y VSS _1592_/A _1550_/Y sg13g2_o21ai_1
XFILLER_87_808 VDD VSS sg13g2_decap_8
X_1484_ _2364_/Q _2355_/Q _1487_/B VDD VSS sg13g2_nor2_1
XFILLER_101_629 VDD VSS sg13g2_decap_8
XFILLER_79_370 VDD VSS sg13g2_decap_8
XFILLER_67_532 VDD VSS sg13g2_decap_8
XFILLER_11_0 VDD VSS sg13g2_decap_8
XFILLER_39_245 VDD VSS sg13g2_decap_8
XFILLER_95_896 VDD VSS sg13g2_decap_8
XFILLER_94_384 VDD VSS sg13g2_decap_8
XFILLER_82_513 VDD VSS sg13g2_decap_8
XFILLER_55_727 VDD VSS sg13g2_decap_8
X_2105_ VSS VDD _2102_/B _2102_/C _2105_/Y _2102_/A sg13g2_a21oi_1
X_2036_ _2026_/X _1826_/B _2036_/S _2037_/B VDD VSS sg13g2_mux2_1
XFILLER_36_952 VDD VSS sg13g2_decap_8
XFILLER_63_793 VDD VSS sg13g2_decap_8
XFILLER_51_911 VDD VSS sg13g2_decap_8
XFILLER_23_602 VDD VSS sg13g2_decap_8
XFILLER_35_462 VDD VSS sg13g2_decap_8
XFILLER_74_1059 VDD VSS sg13g2_fill_2
XFILLER_22_112 VDD VSS sg13g2_decap_8
XFILLER_23_679 VDD VSS sg13g2_decap_8
XFILLER_11_819 VDD VSS sg13g2_decap_8
XFILLER_50_465 VDD VSS sg13g2_decap_8
XFILLER_10_329 VDD VSS sg13g2_decap_8
XFILLER_22_189 VDD VSS sg13g2_decap_8
XFILLER_109_707 VDD VSS sg13g2_decap_8
XFILLER_11_1043 VDD VSS sg13g2_decap_8
XFILLER_105_924 VDD VSS sg13g2_decap_8
Xhold352 _1294_/Y VDD VSS _1295_/A sg13g2_dlygate4sd3_1
XFILLER_89_112 VDD VSS sg13g2_decap_8
Xhold341 _1487_/Y VDD VSS hold341/X sg13g2_dlygate4sd3_1
Xhold330 _2105_/Y VDD VSS _2106_/C sg13g2_dlygate4sd3_1
XFILLER_2_539 VDD VSS sg13g2_decap_8
XFILLER_81_1008 VDD VSS sg13g2_decap_8
Xhold385 _2184_/Q VDD VSS hold385/X sg13g2_dlygate4sd3_1
Xhold363 _1326_/Y VDD VSS _1327_/A sg13g2_dlygate4sd3_1
Xhold396 _2359_/Q VDD VSS _1501_/A sg13g2_dlygate4sd3_1
Xhold374 _1473_/Y VDD VSS _2255_/D sg13g2_dlygate4sd3_1
XFILLER_77_329 VDD VSS sg13g2_decap_8
XFILLER_77_49 VDD VSS sg13g2_decap_8
XFILLER_86_830 VDD VSS sg13g2_decap_8
XFILLER_58_532 VDD VSS sg13g2_decap_4
XFILLER_100_651 VDD VSS sg13g2_fill_1
XFILLER_85_362 VDD VSS sg13g2_decap_8
XFILLER_73_524 VDD VSS sg13g2_decap_8
XFILLER_27_952 VDD VSS sg13g2_decap_8
XFILLER_26_42 VDD VSS sg13g2_decap_8
XFILLER_60_207 VDD VSS sg13g2_decap_8
XFILLER_14_602 VDD VSS sg13g2_decap_8
XFILLER_26_462 VDD VSS sg13g2_decap_8
XFILLER_42_966 VDD VSS sg13g2_decap_8
XFILLER_53_292 VDD VSS sg13g2_decap_8
XFILLER_13_112 VDD VSS sg13g2_decap_8
XFILLER_9_105 VDD VSS sg13g2_decap_8
XFILLER_14_679 VDD VSS sg13g2_decap_8
XFILLER_41_465 VDD VSS sg13g2_fill_2
XFILLER_13_189 VDD VSS sg13g2_decap_8
XFILLER_6_812 VDD VSS sg13g2_decap_8
XFILLER_42_63 VDD VSS sg13g2_decap_8
XFILLER_5_322 VDD VSS sg13g2_decap_8
XFILLER_10_896 VDD VSS sg13g2_decap_8
XFILLER_108_773 VDD VSS sg13g2_decap_8
XFILLER_6_889 VDD VSS sg13g2_decap_8
XFILLER_5_399 VDD VSS sg13g2_decap_8
XFILLER_111_938 VDD VSS sg13g2_decap_8
XFILLER_96_616 VDD VSS sg13g2_decap_8
XFILLER_3_35 VDD VSS sg13g2_decap_8
XFILLER_77_830 VDD VSS sg13g2_decap_8
XFILLER_95_126 VDD VSS sg13g2_decap_8
XFILLER_27_1050 VDD VSS sg13g2_decap_8
XFILLER_49_521 VDD VSS sg13g2_decap_4
XFILLER_77_863 VDD VSS sg13g2_decap_8
XFILLER_110_459 VDD VSS sg13g2_decap_8
XFILLER_76_340 VDD VSS sg13g2_fill_1
XFILLER_49_565 VDD VSS sg13g2_decap_8
XFILLER_3_1008 VDD VSS sg13g2_decap_8
XFILLER_92_833 VDD VSS sg13g2_decap_8
XFILLER_76_373 VDD VSS sg13g2_decap_8
XFILLER_37_749 VDD VSS sg13g2_decap_8
XFILLER_64_557 VDD VSS sg13g2_decap_8
XFILLER_18_952 VDD VSS sg13g2_decap_8
XFILLER_36_259 VDD VSS sg13g2_decap_8
XFILLER_92_899 VDD VSS sg13g2_decap_8
XFILLER_83_70 VDD VSS sg13g2_decap_8
XFILLER_52_719 VDD VSS sg13g2_decap_8
XFILLER_17_462 VDD VSS sg13g2_decap_8
XFILLER_33_966 VDD VSS sg13g2_decap_8
XFILLER_20_616 VDD VSS sg13g2_decap_8
XFILLER_34_1043 VDD VSS sg13g2_decap_8