*SPEF "ieee 1481-1999"
*DESIGN "top"
*DATE "19:51:41 Tuesday February 24, 2026"
*VENDOR "The OpenROAD Project"
*PROGRAM "OpenROAD"
*VERSION "dfc4f595dfb2e1c346492ff1f0274abb28725acf"
*DESIGN_FLOW "NAME_SCOPE LOCAL" "PIN_CAP NONE"
*DIVIDER /
*DELIMITER :
*BUS_DELIMITER []
*T_UNIT 1 NS
*C_UNIT 1 PF
*R_UNIT 1 OHM
*L_UNIT 1 HENRY

*NAME_MAP
*5 clk_PAD
*6 in_data_PADs[0]
*7 in_data_PADs[1]
*8 in_data_PADs[2]
*9 in_data_PADs[3]
*10 in_data_PADs[4]
*11 in_data_PADs[5]
*12 in_data_PADs[6]
*13 in_data_PADs[7]
*14 in_ready_PAD
*15 in_valid_PAD
*16 out_data_PADs[0]
*17 out_data_PADs[1]
*18 out_data_PADs[2]
*19 out_data_PADs[3]
*20 out_data_PADs[4]
*21 out_data_PADs[5]
*22 out_data_PADs[6]
*23 out_data_PADs[7]
*24 out_ready_PAD
*25 out_valid_PAD
*26 rst_n_PAD
*27 _0000_
*28 _0001_
*29 _0002_
*30 _0003_
*31 _0004_
*32 _0005_
*33 _0006_
*34 _0007_
*35 _0008_
*36 _0009_
*37 _0010_
*38 _0011_
*39 _0012_
*40 _0013_
*41 _0014_
*42 _0015_
*43 _0016_
*44 _0017_
*45 _0018_
*46 _0019_
*47 _0020_
*48 _0021_
*49 _0022_
*50 _0023_
*51 _0024_
*52 _0025_
*53 _0026_
*54 _0027_
*55 _0028_
*56 _0029_
*57 _0030_
*58 _0031_
*59 _0032_
*60 _0033_
*61 _0034_
*62 _0035_
*63 _0036_
*64 _0037_
*65 _0038_
*66 _0039_
*67 _0040_
*68 _0041_
*69 _0042_
*70 _0043_
*71 _0044_
*72 _0045_
*73 _0046_
*74 _0047_
*75 _0048_
*76 _0049_
*77 _0050_
*78 _0051_
*79 _0052_
*80 _0053_
*81 _0054_
*82 _0055_
*83 _0056_
*84 _0057_
*85 _0058_
*86 _0059_
*87 _0060_
*88 _0061_
*89 _0062_
*90 _0063_
*91 _0064_
*92 _0065_
*93 _0066_
*94 _0067_
*95 _0068_
*96 _0069_
*97 _0070_
*98 _0071_
*99 _0072_
*100 _0073_
*101 _0074_
*102 _0075_
*103 _0076_
*104 _0077_
*105 _0078_
*106 _0079_
*107 _0080_
*108 _0081_
*109 _0082_
*110 _0083_
*111 _0084_
*112 _0085_
*113 _0086_
*114 _0087_
*115 _0088_
*116 _0089_
*117 _0090_
*118 _0091_
*119 _0092_
*120 _0093_
*121 _0094_
*122 _0095_
*123 _0096_
*124 _0097_
*125 _0098_
*126 _0099_
*127 _0100_
*128 _0101_
*129 _0102_
*130 _0103_
*131 _0104_
*132 _0105_
*133 _0106_
*134 _0107_
*135 _0108_
*136 _0109_
*137 _0110_
*138 _0111_
*139 _0112_
*140 _0113_
*141 _0114_
*142 _0115_
*143 _0116_
*144 _0117_
*145 _0118_
*146 _0119_
*147 _0120_
*148 _0121_
*149 _0122_
*150 _0123_
*151 _0124_
*152 _0125_
*153 _0126_
*154 _0127_
*155 _0128_
*156 _0129_
*157 _0130_
*158 _0131_
*159 _0132_
*160 _0133_
*161 _0134_
*162 _0135_
*163 _0136_
*164 _0137_
*165 _0138_
*166 _0139_
*167 _0140_
*168 _0141_
*169 _0142_
*170 _0143_
*171 _0144_
*172 _0145_
*173 _0146_
*174 _0147_
*175 _0148_
*176 _0149_
*177 _0150_
*178 _0151_
*179 _0152_
*180 _0153_
*181 _0154_
*182 _0155_
*183 _0156_
*184 _0157_
*185 _0158_
*186 _0159_
*187 _0160_
*188 _0161_
*189 _0162_
*190 _0163_
*191 _0164_
*192 _0165_
*193 _0166_
*194 _0167_
*195 _0168_
*196 _0169_
*197 _0170_
*198 _0171_
*199 _0172_
*200 _0173_
*201 _0174_
*202 _0175_
*203 _0176_
*204 _0177_
*205 _0178_
*206 _0179_
*207 _0180_
*208 _0181_
*209 _0182_
*210 _0183_
*211 _0184_
*212 _0185_
*213 _0186_
*214 _0187_
*215 _0188_
*216 _0189_
*217 _0190_
*218 _0191_
*219 _0192_
*220 _0193_
*221 _0194_
*222 _0195_
*223 _0196_
*224 _0197_
*225 _0198_
*226 _0199_
*227 _0200_
*228 _0201_
*229 _0202_
*230 _0203_
*231 _0204_
*232 _0205_
*233 _0206_
*234 _0207_
*235 _0208_
*236 _0209_
*237 _0210_
*238 _0211_
*239 _0212_
*240 _0213_
*241 _0214_
*242 _0215_
*243 _0216_
*244 _0217_
*245 _0218_
*246 _0219_
*247 _0220_
*248 _0221_
*249 _0222_
*250 _0223_
*251 _0224_
*252 _0225_
*253 _0226_
*254 _0227_
*255 _0228_
*256 _0229_
*257 _0230_
*258 _0231_
*259 _0232_
*260 _0233_
*261 _0234_
*262 _0235_
*263 _0236_
*264 _0237_
*265 _0238_
*266 _0239_
*267 _0240_
*268 _0241_
*269 _0242_
*270 _0243_
*271 _0244_
*272 _0245_
*273 _0246_
*274 _0247_
*275 _0248_
*276 _0249_
*277 _0250_
*278 _0251_
*279 _0252_
*280 _0253_
*281 _0254_
*282 _0255_
*283 _0256_
*284 _0257_
*285 _0258_
*286 _0259_
*287 _0260_
*288 _0261_
*289 _0262_
*290 _0263_
*291 _0264_
*292 _0265_
*293 _0266_
*294 _0267_
*295 _0268_
*296 _0269_
*297 _0270_
*298 _0271_
*299 _0272_
*300 _0273_
*301 _0274_
*302 _0275_
*303 _0276_
*304 _0277_
*305 _0278_
*306 _0279_
*307 _0280_
*308 _0281_
*309 _0282_
*310 _0283_
*311 _0284_
*312 _0285_
*313 _0286_
*314 _0287_
*315 _0288_
*316 _0289_
*317 _0290_
*318 _0291_
*319 _0292_
*320 _0293_
*321 _0294_
*322 _0295_
*323 _0296_
*324 _0297_
*325 _0298_
*326 _0299_
*327 _0300_
*328 _0301_
*329 _0302_
*330 _0303_
*331 _0304_
*332 _0305_
*333 _0306_
*334 _0307_
*335 _0308_
*336 _0309_
*337 _0310_
*338 _0311_
*339 _0312_
*340 _0313_
*341 _0314_
*342 _0315_
*343 _0316_
*344 _0317_
*345 _0318_
*346 _0319_
*347 _0320_
*348 _0321_
*349 _0322_
*350 _0323_
*351 _0324_
*352 _0325_
*353 _0326_
*354 _0327_
*355 _0328_
*356 _0329_
*357 _0330_
*358 _0331_
*359 _0332_
*360 _0333_
*361 _0334_
*362 _0335_
*363 _0336_
*364 _0337_
*365 _0338_
*366 _0339_
*367 _0340_
*368 _0341_
*369 _0342_
*370 _0343_
*371 _0344_
*372 _0345_
*373 _0346_
*374 _0347_
*375 _0348_
*376 _0349_
*377 _0350_
*378 _0351_
*379 _0352_
*380 _0353_
*381 _0354_
*382 _0355_
*383 _0356_
*384 _0357_
*385 _0358_
*386 _0359_
*387 _0360_
*388 _0361_
*389 _0362_
*390 _0363_
*391 _0364_
*392 _0365_
*393 _0366_
*394 _0367_
*395 _0368_
*396 _0369_
*397 _0370_
*398 _0371_
*399 _0372_
*400 _0373_
*401 _0374_
*402 _0375_
*403 _0376_
*404 _0377_
*405 _0378_
*406 _0379_
*407 _0380_
*408 _0381_
*409 _0382_
*410 _0383_
*411 _0384_
*412 _0385_
*413 _0386_
*414 _0387_
*415 _0388_
*416 _0389_
*417 _0390_
*418 _0391_
*419 _0392_
*420 _0393_
*421 _0394_
*422 _0395_
*423 _0396_
*424 _0397_
*425 _0398_
*426 _0399_
*427 _0400_
*428 _0401_
*429 _0402_
*430 _0403_
*431 _0404_
*432 _0405_
*433 _0406_
*434 _0407_
*435 _0408_
*436 _0409_
*437 _0410_
*438 _0411_
*439 _0412_
*440 _0413_
*441 _0414_
*442 _0415_
*443 _0416_
*444 _0417_
*445 _0418_
*446 _0419_
*447 _0420_
*448 _0421_
*449 _0422_
*450 _0423_
*451 _0424_
*452 _0425_
*453 _0426_
*454 _0427_
*455 _0428_
*456 _0429_
*457 _0430_
*458 _0431_
*459 _0432_
*460 _0433_
*461 _0434_
*462 _0435_
*463 _0436_
*464 _0437_
*465 _0438_
*466 _0439_
*467 _0440_
*468 _0441_
*469 _0442_
*470 _0443_
*471 _0444_
*472 _0445_
*473 _0446_
*474 _0447_
*475 _0448_
*476 _0449_
*477 _0450_
*478 _0451_
*479 _0452_
*480 _0453_
*481 _0454_
*482 _0455_
*483 _0456_
*484 _0457_
*485 _0458_
*486 _0459_
*487 _0460_
*488 _0461_
*489 _0462_
*490 _0463_
*491 _0464_
*492 _0465_
*493 _0466_
*494 _0467_
*495 _0468_
*496 _0469_
*497 _0470_
*498 _0471_
*499 _0472_
*500 _0473_
*501 _0474_
*502 _0475_
*503 _0476_
*504 _0477_
*505 _0478_
*506 _0479_
*507 _0480_
*508 _0481_
*509 _0482_
*510 _0483_
*511 _0484_
*512 _0485_
*513 _0486_
*514 _0487_
*515 _0488_
*516 _0489_
*517 _0490_
*518 _0491_
*519 _0492_
*520 _0493_
*521 _0494_
*522 _0495_
*523 _0496_
*524 _0497_
*525 _0498_
*526 _0499_
*527 _0500_
*528 _0501_
*529 _0502_
*530 _0503_
*531 _0504_
*532 _0505_
*533 _0506_
*534 _0507_
*535 _0508_
*536 _0509_
*537 _0510_
*538 _0511_
*539 _0512_
*540 _0513_
*541 _0514_
*542 _0515_
*543 _0516_
*544 _0517_
*545 _0518_
*546 _0519_
*547 _0520_
*548 _0521_
*549 _0522_
*550 _0523_
*551 _0524_
*552 _0525_
*553 _0526_
*554 _0527_
*555 _0528_
*556 _0529_
*557 _0530_
*558 _0531_
*559 _0532_
*560 _0533_
*561 _0534_
*562 _0535_
*563 _0536_
*564 _0537_
*565 _0538_
*566 _0539_
*567 _0540_
*568 _0541_
*569 _0542_
*570 _0543_
*571 _0544_
*572 _0545_
*573 _0546_
*574 _0547_
*575 _0548_
*576 _0549_
*577 _0550_
*578 _0551_
*579 _0552_
*580 _0553_
*581 _0554_
*582 _0555_
*583 _0556_
*584 _0557_
*585 _0558_
*586 _0559_
*587 _0560_
*588 _0561_
*589 _0562_
*590 _0563_
*591 _0564_
*592 _0565_
*593 _0566_
*594 _0567_
*595 _0568_
*596 _0569_
*597 _0570_
*598 _0571_
*599 _0572_
*600 _0573_
*601 _0574_
*602 _0575_
*603 _0576_
*604 _0577_
*605 _0578_
*606 _0579_
*607 _0580_
*608 _0581_
*609 _0582_
*610 _0583_
*611 _0584_
*612 _0585_
*613 _0586_
*614 _0587_
*615 _0588_
*616 _0589_
*617 _0590_
*618 _0591_
*619 _0592_
*620 _0593_
*621 _0594_
*622 _0595_
*623 _0596_
*624 _0597_
*625 _0598_
*626 _0599_
*627 _0600_
*628 _0601_
*629 _0602_
*630 _0603_
*631 _0604_
*632 _0605_
*633 _0606_
*634 _0607_
*635 _0608_
*636 _0609_
*637 _0610_
*638 _0611_
*639 _0612_
*640 _0613_
*641 _0614_
*642 _0615_
*643 _0616_
*644 _0617_
*645 _0618_
*646 _0619_
*647 _0620_
*648 _0621_
*649 _0622_
*650 _0623_
*651 _0624_
*652 _0625_
*653 _0626_
*654 _0627_
*655 _0628_
*656 _0629_
*657 _0630_
*658 _0631_
*659 _0632_
*660 _0633_
*661 _0634_
*662 _0635_
*663 _0636_
*664 _0637_
*665 _0638_
*666 _0639_
*667 _0640_
*668 _0641_
*669 _0642_
*670 _0643_
*671 _0644_
*672 _0645_
*673 _0646_
*674 _0647_
*675 _0648_
*676 _0649_
*677 _0650_
*678 _0651_
*679 _0652_
*680 _0653_
*681 _0654_
*682 _0655_
*683 _0656_
*684 _0657_
*685 _0658_
*686 _0659_
*687 _0660_
*688 _0661_
*689 _0662_
*690 _0663_
*691 _0664_
*692 _0665_
*693 _0666_
*694 _0667_
*695 _0668_
*696 _0669_
*697 _0670_
*698 _0671_
*699 _0672_
*700 _0673_
*701 _0674_
*702 _0675_
*703 _0676_
*704 _0677_
*705 _0678_
*706 _0679_
*707 _0680_
*708 _0681_
*709 _0682_
*710 _0683_
*711 _0684_
*712 _0685_
*713 _0686_
*714 _0687_
*715 _0688_
*716 _0689_
*717 _0690_
*718 _0691_
*719 _0692_
*720 _0693_
*721 _0694_
*722 _0695_
*723 _0696_
*724 _0697_
*725 _0698_
*726 _0699_
*727 _0700_
*728 _0701_
*729 _0702_
*730 _0703_
*731 _0704_
*732 _0705_
*733 _0706_
*734 _0707_
*735 _0708_
*736 _0709_
*737 _0710_
*738 _0711_
*739 _0712_
*740 _0713_
*741 _0714_
*742 _0715_
*743 _0716_
*744 _0717_
*745 _0718_
*746 _0719_
*747 _0720_
*748 _0721_
*749 _0722_
*750 _0723_
*751 _0724_
*752 _0725_
*753 _0726_
*754 _0727_
*755 _0728_
*756 _0729_
*757 _0730_
*758 _0731_
*759 _0732_
*760 _0733_
*761 _0734_
*762 _0735_
*763 _0736_
*764 _0737_
*765 _0738_
*766 _0739_
*767 _0740_
*768 _0741_
*769 _0742_
*770 _0743_
*771 _0744_
*772 _0745_
*773 _0746_
*774 _0747_
*775 _0748_
*776 _0749_
*777 _0750_
*778 _0751_
*779 _0752_
*780 _0753_
*781 _0754_
*782 _0755_
*783 _0756_
*784 _0757_
*785 _0758_
*786 _0759_
*787 _0760_
*788 _0761_
*789 _0762_
*790 _0763_
*791 _0764_
*792 _0765_
*793 _0766_
*794 _0767_
*795 _0768_
*796 _0769_
*797 _0770_
*798 _0771_
*799 _0772_
*800 _0773_
*801 _0774_
*802 _0775_
*803 _0776_
*804 _0777_
*805 _0778_
*806 _0779_
*807 _0780_
*808 _0781_
*809 _0782_
*810 _0783_
*811 _0784_
*812 _0785_
*813 _0786_
*814 _0787_
*815 _0788_
*816 _0789_
*817 _0790_
*818 _0791_
*819 _0792_
*820 _0793_
*821 _0794_
*822 _0795_
*823 _0796_
*824 _0797_
*825 _0798_
*826 _0799_
*827 _0800_
*828 _0801_
*829 _0802_
*830 _0803_
*831 _0804_
*832 _0805_
*833 _0806_
*834 _0807_
*835 _0808_
*836 _0809_
*837 _0810_
*838 _0811_
*839 _0812_
*840 _0813_
*841 _0814_
*842 _0815_
*843 _0816_
*844 _0817_
*845 _0818_
*846 _0819_
*847 _0820_
*848 _0821_
*849 _0822_
*850 _0823_
*851 _0824_
*852 _0825_
*853 _0826_
*854 _0827_
*855 _0828_
*856 _0829_
*857 _0830_
*858 _0831_
*859 _0832_
*860 _0833_
*861 _0834_
*862 _0835_
*863 _0836_
*864 _0837_
*865 _0838_
*866 _0839_
*867 _0840_
*868 _0841_
*869 _0842_
*870 _0843_
*871 _0844_
*872 _0845_
*873 _0846_
*874 _0847_
*875 _0848_
*876 _0849_
*877 _0850_
*878 _0851_
*879 _0852_
*880 _0853_
*881 _0854_
*882 _0855_
*883 _0856_
*884 _0857_
*885 _0858_
*886 _0859_
*887 _0860_
*888 _0861_
*889 _0862_
*890 _0863_
*891 _0864_
*892 _0865_
*893 _0866_
*894 _0867_
*895 _0868_
*896 _0869_
*897 _0870_
*898 _0871_
*899 _0872_
*900 _0873_
*901 _0874_
*902 _0875_
*903 _0876_
*904 _0877_
*905 _0878_
*906 _0879_
*907 _0880_
*908 _0881_
*909 _0882_
*910 _0883_
*911 _0884_
*912 _0885_
*913 _0886_
*914 _0887_
*915 _0888_
*916 _0889_
*917 _0890_
*918 _0891_
*919 _0892_
*920 _0893_
*921 _0894_
*922 _0895_
*923 _0896_
*924 _0897_
*925 _0898_
*926 _0899_
*927 _0900_
*928 _0901_
*929 _0902_
*930 _0903_
*931 _0904_
*932 _0905_
*933 _0906_
*934 _0907_
*935 _0908_
*936 _0909_
*937 _0910_
*938 _0911_
*939 _0912_
*940 _0913_
*941 _0914_
*942 _0915_
*943 _0916_
*944 _0917_
*945 _0918_
*946 _0919_
*947 _0920_
*948 _0921_
*949 _0922_
*950 _0923_
*951 _0924_
*952 _0925_
*953 _0926_
*954 _0927_
*955 _0928_
*956 _0929_
*957 _0930_
*958 _0931_
*959 _0932_
*960 _0933_
*961 _0934_
*962 _0935_
*963 _0936_
*964 _0937_
*965 _0938_
*966 _0939_
*967 _0940_
*968 _0941_
*969 _0942_
*970 _0943_
*971 _0944_
*972 _0945_
*973 _0946_
*974 _0947_
*975 _0948_
*976 _0949_
*977 _0950_
*978 _0951_
*979 _0952_
*980 _0953_
*981 _0954_
*982 _0955_
*983 _0956_
*984 _0957_
*985 _0958_
*986 _0959_
*987 _0960_
*988 _0961_
*989 _0962_
*990 _0963_
*991 _0964_
*992 _0965_
*993 _0966_
*994 _0967_
*995 _0968_
*996 _0969_
*997 _0970_
*998 _0971_
*999 _0972_
*1000 _0973_
*1001 _0974_
*1002 clk
*1003 clknet_0_clk
*1004 clknet_2_0__leaf_clk
*1005 clknet_2_1__leaf_clk
*1006 clknet_2_2__leaf_clk
*1007 clknet_2_3__leaf_clk
*1008 clknet_leaf_0_clk
*1009 clknet_leaf_10_clk
*1010 clknet_leaf_11_clk
*1011 clknet_leaf_12_clk
*1012 clknet_leaf_13_clk
*1013 clknet_leaf_14_clk
*1014 clknet_leaf_15_clk
*1015 clknet_leaf_16_clk
*1016 clknet_leaf_17_clk
*1017 clknet_leaf_18_clk
*1018 clknet_leaf_19_clk
*1019 clknet_leaf_1_clk
*1020 clknet_leaf_2_clk
*1021 clknet_leaf_3_clk
*1022 clknet_leaf_4_clk
*1023 clknet_leaf_5_clk
*1024 clknet_leaf_6_clk
*1025 clknet_leaf_7_clk
*1026 clknet_leaf_8_clk
*1027 clknet_leaf_9_clk
*1028 in_data\[0\]
*1029 in_data\[1\]
*1030 in_data\[2\]
*1031 in_data\[3\]
*1032 in_data\[4\]
*1033 in_data\[5\]
*1034 in_data\[6\]
*1035 in_data\[7\]
*1036 in_ready
*1037 in_valid
*1038 net
*1039 net1
*1040 net10
*1041 net100
*1042 net101
*1043 net102
*1044 net103
*1045 net104
*1046 net105
*1047 net106
*1048 net107
*1049 net108
*1050 net109
*1051 net11
*1052 net110
*1053 net111
*1054 net112
*1055 net113
*1056 net114
*1057 net115
*1058 net116
*1059 net117
*1060 net118
*1061 net119
*1062 net12
*1063 net120
*1064 net121
*1065 net122
*1066 net123
*1067 net124
*1068 net125
*1069 net126
*1070 net127
*1071 net128
*1072 net129
*1073 net13
*1074 net130
*1075 net131
*1076 net132
*1077 net133
*1078 net134
*1079 net135
*1080 net136
*1081 net137
*1082 net138
*1083 net139
*1084 net14
*1085 net140
*1086 net141
*1087 net142
*1088 net143
*1089 net144
*1090 net145
*1091 net146
*1092 net147
*1093 net148
*1094 net149
*1095 net15
*1096 net150
*1097 net151
*1098 net152
*1099 net153
*1100 net154
*1101 net155
*1102 net156
*1103 net157
*1104 net158
*1105 net159
*1106 net16
*1107 net160
*1108 net161
*1109 net162
*1110 net163
*1111 net164
*1112 net165
*1113 net166
*1114 net167
*1115 net168
*1116 net169
*1117 net17
*1118 net170
*1119 net171
*1120 net172
*1121 net173
*1122 net174
*1123 net175
*1124 net176
*1125 net177
*1126 net178
*1127 net179
*1128 net18
*1129 net180
*1130 net181
*1131 net182
*1132 net183
*1133 net184
*1134 net185
*1135 net186
*1136 net187
*1137 net188
*1138 net189
*1139 net19
*1140 net190
*1141 net191
*1142 net192
*1143 net193
*1144 net194
*1145 net195
*1146 net196
*1147 net197
*1148 net198
*1149 net199
*1150 net2
*1151 net20
*1152 net200
*1153 net201
*1154 net202
*1155 net203
*1156 net204
*1157 net205
*1158 net206
*1159 net207
*1160 net208
*1161 net209
*1162 net21
*1163 net210
*1164 net211
*1165 net212
*1166 net213
*1167 net214
*1168 net215
*1169 net216
*1170 net217
*1171 net218
*1172 net219
*1173 net22
*1174 net220
*1175 net221
*1176 net222
*1177 net223
*1178 net224
*1179 net225
*1180 net226
*1181 net227
*1182 net228
*1183 net229
*1184 net23
*1185 net230
*1186 net231
*1187 net232
*1188 net233
*1189 net234
*1190 net235
*1191 net236
*1192 net237
*1193 net238
*1194 net239
*1195 net24
*1196 net240
*1197 net241
*1198 net242
*1199 net243
*1200 net244
*1201 net245
*1202 net246
*1203 net247
*1204 net248
*1205 net249
*1206 net25
*1207 net250
*1208 net251
*1209 net252
*1210 net253
*1211 net254
*1212 net255
*1213 net256
*1214 net257
*1215 net258
*1216 net259
*1217 net26
*1218 net260
*1219 net261
*1220 net262
*1221 net263
*1222 net264
*1223 net265
*1224 net266
*1225 net267
*1226 net268
*1227 net269
*1228 net27
*1229 net270
*1230 net271
*1231 net272
*1232 net273
*1233 net274
*1234 net275
*1235 net276
*1236 net277
*1237 net278
*1238 net279
*1239 net28
*1240 net280
*1241 net281
*1242 net282
*1243 net283
*1244 net284
*1245 net285
*1246 net286
*1247 net287
*1248 net288
*1249 net289
*1250 net29
*1251 net290
*1252 net291
*1253 net292
*1254 net293
*1255 net294
*1256 net295
*1257 net296
*1258 net297
*1259 net298
*1260 net299
*1261 net3
*1262 net30
*1263 net300
*1264 net301
*1265 net302
*1266 net303
*1267 net304
*1268 net305
*1269 net306
*1270 net307
*1271 net308
*1272 net309
*1273 net31
*1274 net310
*1275 net311
*1276 net312
*1277 net313
*1278 net314
*1279 net315
*1280 net316
*1281 net317
*1282 net318
*1283 net319
*1284 net32
*1285 net320
*1286 net321
*1287 net322
*1288 net323
*1289 net324
*1290 net325
*1291 net326
*1292 net327
*1293 net328
*1294 net329
*1295 net33
*1296 net330
*1297 net331
*1298 net332
*1299 net333
*1300 net334
*1301 net335
*1302 net336
*1303 net337
*1304 net338
*1305 net339
*1306 net34
*1307 net340
*1308 net341
*1309 net342
*1310 net343
*1311 net344
*1312 net345
*1313 net346
*1314 net347
*1315 net348
*1316 net349
*1317 net35
*1318 net350
*1319 net351
*1320 net352
*1321 net353
*1322 net354
*1323 net355
*1324 net356
*1325 net357
*1326 net358
*1327 net359
*1328 net36
*1329 net360
*1330 net361
*1331 net362
*1332 net363
*1333 net364
*1334 net365
*1335 net366
*1336 net367
*1337 net368
*1338 net369
*1339 net37
*1340 net370
*1341 net371
*1342 net372
*1343 net373
*1344 net374
*1345 net375
*1346 net376
*1347 net377
*1348 net378
*1349 net379
*1350 net38
*1351 net380
*1352 net381
*1353 net382
*1354 net383
*1355 net384
*1356 net385
*1357 net386
*1358 net387
*1359 net388
*1360 net389
*1361 net39
*1362 net390
*1363 net391
*1364 net392
*1365 net393
*1366 net394
*1367 net395
*1368 net396
*1369 net397
*1370 net398
*1371 net399
*1372 net4
*1373 net40
*1374 net400
*1375 net401
*1376 net402
*1377 net403
*1378 net404
*1379 net405
*1380 net406
*1381 net407
*1382 net408
*1383 net409
*1384 net41
*1385 net410
*1386 net411
*1387 net412
*1388 net413
*1389 net414
*1390 net415
*1391 net416
*1392 net417
*1393 net418
*1394 net419
*1395 net42
*1396 net420
*1397 net421
*1398 net422
*1399 net423
*1400 net424
*1401 net425
*1402 net426
*1403 net427
*1404 net428
*1405 net429
*1406 net43
*1407 net430
*1408 net431
*1409 net432
*1410 net433
*1411 net434
*1412 net435
*1413 net436
*1414 net437
*1415 net438
*1416 net439
*1417 net44
*1418 net440
*1419 net441
*1420 net442
*1421 net443
*1422 net444
*1423 net445
*1424 net446
*1425 net447
*1426 net448
*1427 net449
*1428 net45
*1429 net450
*1430 net451
*1431 net452
*1432 net453
*1433 net454
*1434 net455
*1435 net456
*1436 net457
*1437 net458
*1438 net459
*1439 net46
*1440 net460
*1441 net461
*1442 net462
*1443 net463
*1444 net464
*1445 net465
*1446 net466
*1447 net467
*1448 net468
*1449 net469
*1450 net47
*1451 net470
*1452 net471
*1453 net472
*1454 net473
*1455 net474
*1456 net475
*1457 net476
*1458 net477
*1459 net478
*1460 net479
*1461 net48
*1462 net480
*1463 net481
*1464 net482
*1465 net483
*1466 net484
*1467 net485
*1468 net486
*1469 net487
*1470 net488
*1471 net489
*1472 net49
*1473 net490
*1474 net491
*1475 net492
*1476 net493
*1477 net494
*1478 net495
*1479 net496
*1480 net497
*1481 net498
*1482 net499
*1483 net5
*1484 net50
*1485 net500
*1486 net501
*1487 net502
*1488 net503
*1489 net504
*1490 net505
*1491 net506
*1492 net507
*1493 net508
*1494 net509
*1495 net51
*1496 net510
*1497 net511
*1498 net512
*1499 net513
*1500 net514
*1501 net515
*1502 net516
*1503 net517
*1504 net518
*1505 net519
*1506 net52
*1507 net520
*1508 net521
*1509 net522
*1510 net523
*1511 net524
*1512 net525
*1513 net526
*1514 net527
*1515 net528
*1516 net529
*1517 net53
*1518 net530
*1519 net531
*1520 net532
*1521 net533
*1522 net534
*1523 net535
*1524 net536
*1525 net537
*1526 net538
*1527 net539
*1528 net54
*1529 net540
*1530 net541
*1531 net542
*1532 net543
*1533 net544
*1534 net545
*1535 net546
*1536 net547
*1537 net548
*1538 net549
*1539 net55
*1540 net550
*1541 net551
*1542 net552
*1543 net553
*1544 net554
*1545 net555
*1546 net556
*1547 net557
*1548 net558
*1549 net559
*1550 net56
*1551 net560
*1552 net561
*1553 net562
*1554 net563
*1555 net564
*1556 net565
*1557 net566
*1558 net567
*1559 net568
*1560 net569
*1561 net57
*1562 net58
*1563 net59
*1564 net6
*1565 net60
*1566 net61
*1567 net62
*1568 net63
*1569 net64
*1570 net65
*1571 net66
*1572 net67
*1573 net68
*1574 net69
*1575 net7
*1576 net70
*1577 net71
*1578 net72
*1579 net73
*1580 net74
*1581 net75
*1582 net76
*1583 net77
*1584 net78
*1585 net79
*1586 net8
*1587 net80
*1588 net81
*1589 net82
*1590 net83
*1591 net84
*1592 net85
*1593 net86
*1594 net87
*1595 net88
*1596 net89
*1597 net9
*1598 net90
*1599 net91
*1600 net92
*1601 net93
*1602 net94
*1603 net95
*1604 net96
*1605 net97
*1606 net98
*1607 net99
*1608 out_data\[0\]
*1609 out_data\[1\]
*1610 out_data\[2\]
*1611 out_data\[3\]
*1612 out_data\[4\]
*1613 out_data\[5\]
*1614 out_data\[6\]
*1615 out_data\[7\]
*1616 out_ready
*1617 out_valid
*1618 rst_n
*1619 u_chip\.BminX\[0\]
*1620 u_chip\.BminX\[1\]
*1621 u_chip\.BminX\[2\]
*1622 u_chip\.BminX\[3\]
*1623 u_chip\.BminX\[4\]
*1624 u_chip\.BminX\[5\]
*1625 u_chip\.BminX\[6\]
*1626 u_chip\.BminX\[7\]
*1627 u_chip\.BminY\[0\]
*1628 u_chip\.BminY\[1\]
*1629 u_chip\.BminY\[2\]
*1630 u_chip\.BminY\[3\]
*1631 u_chip\.BminY\[4\]
*1632 u_chip\.BminY\[5\]
*1633 u_chip\.BminY\[6\]
*1634 u_chip\.BminY\[7\]
*1635 u_chip\.BminZ\[0\]
*1636 u_chip\.BminZ\[1\]
*1637 u_chip\.BminZ\[2\]
*1638 u_chip\.BminZ\[3\]
*1639 u_chip\.BminZ\[4\]
*1640 u_chip\.BminZ\[5\]
*1641 u_chip\.BminZ\[6\]
*1642 u_chip\.BminZ\[7\]
*1643 u_chip\.BplusX\[0\]
*1644 u_chip\.BplusX\[1\]
*1645 u_chip\.BplusX\[2\]
*1646 u_chip\.BplusX\[3\]
*1647 u_chip\.BplusX\[4\]
*1648 u_chip\.BplusX\[5\]
*1649 u_chip\.BplusX\[6\]
*1650 u_chip\.BplusX\[7\]
*1651 u_chip\.BplusY\[0\]
*1652 u_chip\.BplusY\[1\]
*1653 u_chip\.BplusY\[2\]
*1654 u_chip\.BplusY\[3\]
*1655 u_chip\.BplusY\[4\]
*1656 u_chip\.BplusY\[5\]
*1657 u_chip\.BplusY\[6\]
*1658 u_chip\.BplusY\[7\]
*1659 u_chip\.BplusZ\[0\]
*1660 u_chip\.BplusZ\[1\]
*1661 u_chip\.BplusZ\[2\]
*1662 u_chip\.BplusZ\[3\]
*1663 u_chip\.BplusZ\[4\]
*1664 u_chip\.BplusZ\[5\]
*1665 u_chip\.BplusZ\[6\]
*1666 u_chip\.BplusZ\[7\]
*1667 u_chip\.crc1_done
*1668 u_chip\.crc1_out\[0\]
*1669 u_chip\.crc1_out\[1\]
*1670 u_chip\.crc1_out\[2\]
*1671 u_chip\.crc1_out\[3\]
*1672 u_chip\.crc1_out\[4\]
*1673 u_chip\.crc1_out\[5\]
*1674 u_chip\.crc1_out\[6\]
*1675 u_chip\.crc1_out\[7\]
*1676 u_chip\.crc1_start
*1677 u_chip\.crc2_done
*1678 u_chip\.crc2_out\[0\]
*1679 u_chip\.crc2_out\[1\]
*1680 u_chip\.crc2_out\[2\]
*1681 u_chip\.crc2_out\[3\]
*1682 u_chip\.crc2_out\[4\]
*1683 u_chip\.crc2_out\[5\]
*1684 u_chip\.crc2_out\[6\]
*1685 u_chip\.crc2_out\[7\]
*1686 u_chip\.crc2_start
*1687 u_chip\.crc_in\[0\]
*1688 u_chip\.crc_in\[1\]
*1689 u_chip\.crc_in\[2\]
*1690 u_chip\.crc_in\[3\]
*1691 u_chip\.crc_in\[4\]
*1692 u_chip\.crc_in\[5\]
*1693 u_chip\.crc_in\[6\]
*1694 u_chip\.crc_in\[7\]
*1695 u_chip\.crc_ok
*1696 u_chip\.error_crc
*1697 u_chip\.in_idx\[0\]
*1698 u_chip\.in_idx\[1\]
*1699 u_chip\.in_idx\[2\]
*1700 u_chip\.in_idx\[3\]
*1701 u_chip\.omegaPsi\[0\]
*1702 u_chip\.omegaPsi\[10\]
*1703 u_chip\.omegaPsi\[11\]
*1704 u_chip\.omegaPsi\[12\]
*1705 u_chip\.omegaPsi\[13\]
*1706 u_chip\.omegaPsi\[14\]
*1707 u_chip\.omegaPsi\[15\]
*1708 u_chip\.omegaPsi\[1\]
*1709 u_chip\.omegaPsi\[2\]
*1710 u_chip\.omegaPsi\[3\]
*1711 u_chip\.omegaPsi\[4\]
*1712 u_chip\.omegaPsi\[5\]
*1713 u_chip\.omegaPsi\[6\]
*1714 u_chip\.omegaPsi\[7\]
*1715 u_chip\.omegaPsi\[8\]
*1716 u_chip\.omegaPsi\[9\]
*1717 u_chip\.omegaTheta\[0\]
*1718 u_chip\.omegaTheta\[10\]
*1719 u_chip\.omegaTheta\[11\]
*1720 u_chip\.omegaTheta\[12\]
*1721 u_chip\.omegaTheta\[13\]
*1722 u_chip\.omegaTheta\[14\]
*1723 u_chip\.omegaTheta\[15\]
*1724 u_chip\.omegaTheta\[1\]
*1725 u_chip\.omegaTheta\[2\]
*1726 u_chip\.omegaTheta\[3\]
*1727 u_chip\.omegaTheta\[4\]
*1728 u_chip\.omegaTheta\[5\]
*1729 u_chip\.omegaTheta\[6\]
*1730 u_chip\.omegaTheta\[7\]
*1731 u_chip\.omegaTheta\[8\]
*1732 u_chip\.omegaTheta\[9\]
*1733 u_chip\.out_buf\[0\]\[0\]
*1734 u_chip\.out_buf\[0\]\[1\]
*1735 u_chip\.out_buf\[0\]\[2\]
*1736 u_chip\.out_buf\[0\]\[3\]
*1737 u_chip\.out_buf\[0\]\[4\]
*1738 u_chip\.out_buf\[0\]\[5\]
*1739 u_chip\.out_buf\[0\]\[6\]
*1740 u_chip\.out_buf\[0\]\[7\]
*1741 u_chip\.out_buf\[1\]\[0\]
*1742 u_chip\.out_buf\[1\]\[1\]
*1743 u_chip\.out_buf\[1\]\[2\]
*1744 u_chip\.out_buf\[1\]\[3\]
*1745 u_chip\.out_buf\[1\]\[4\]
*1746 u_chip\.out_buf\[1\]\[5\]
*1747 u_chip\.out_buf\[1\]\[6\]
*1748 u_chip\.out_buf\[1\]\[7\]
*1749 u_chip\.out_buf\[2\]\[0\]
*1750 u_chip\.out_buf\[2\]\[1\]
*1751 u_chip\.out_buf\[2\]\[2\]
*1752 u_chip\.out_buf\[2\]\[3\]
*1753 u_chip\.out_buf\[2\]\[4\]
*1754 u_chip\.out_buf\[2\]\[5\]
*1755 u_chip\.out_buf\[2\]\[6\]
*1756 u_chip\.out_buf\[2\]\[7\]
*1757 u_chip\.out_buf\[3\]\[0\]
*1758 u_chip\.out_buf\[3\]\[1\]
*1759 u_chip\.out_buf\[3\]\[2\]
*1760 u_chip\.out_buf\[3\]\[3\]
*1761 u_chip\.out_buf\[3\]\[4\]
*1762 u_chip\.out_buf\[3\]\[5\]
*1763 u_chip\.out_buf\[3\]\[6\]
*1764 u_chip\.out_buf\[3\]\[7\]
*1765 u_chip\.out_buf\[4\]\[0\]
*1766 u_chip\.out_buf\[4\]\[1\]
*1767 u_chip\.out_buf\[4\]\[2\]
*1768 u_chip\.out_buf\[4\]\[3\]
*1769 u_chip\.out_buf\[4\]\[4\]
*1770 u_chip\.out_buf\[4\]\[5\]
*1771 u_chip\.out_buf\[4\]\[6\]
*1772 u_chip\.out_buf\[4\]\[7\]
*1773 u_chip\.out_buf\[5\]\[0\]
*1774 u_chip\.out_buf\[5\]\[1\]
*1775 u_chip\.out_idx\[0\]
*1776 u_chip\.out_idx\[1\]
*1777 u_chip\.out_idx\[2\]
*1778 u_chip\.out_idx\[3\]
*1779 u_chip\.state\[10\]
*1780 u_chip\.state\[1\]
*1781 u_chip\.state\[2\]
*1782 u_chip\.state\[3\]
*1783 u_chip\.state\[4\]
*1784 u_chip\.state\[5\]
*1785 u_chip\.state\[6\]
*1786 u_chip\.state\[7\]
*1787 u_chip\.state\[8\]
*1788 u_chip\.state\[9\]
*1789 u_chip\.u_crc1\.busy
*1790 u_chip\.u_crc1\.crc_byte\[0\]
*1791 u_chip\.u_crc1\.crc_byte\[1\]
*1792 u_chip\.u_crc1\.crc_byte\[2\]
*1793 u_chip\.u_crc1\.crc_byte\[3\]
*1794 u_chip\.u_crc1\.crc_byte\[4\]
*1795 u_chip\.u_crc1\.crc_byte\[5\]
*1796 u_chip\.u_crc1\.crc_byte\[6\]
*1797 u_chip\.u_crc1\.crc_byte\[7\]
*1798 u_chip\.u_crc1\.crc_start
*1799 u_chip\.u_crc1\.crc_valid
*1800 u_chip\.u_crc1\.idx\[0\]
*1801 u_chip\.u_crc1\.idx\[1\]
*1802 u_chip\.u_crc1\.idx\[2\]
*1803 u_chip\.u_crc1\.idx\[3\]
*1804 u_chip\.u_crc2\.busy
*1805 u_chip\.u_crc2\.crc_byte\[0\]
*1806 u_chip\.u_crc2\.crc_byte\[1\]
*1807 u_chip\.u_crc2\.crc_byte\[2\]
*1808 u_chip\.u_crc2\.crc_byte\[3\]
*1809 u_chip\.u_crc2\.crc_byte\[4\]
*1810 u_chip\.u_crc2\.crc_byte\[5\]
*1811 u_chip\.u_crc2\.crc_byte\[6\]
*1812 u_chip\.u_crc2\.crc_byte\[7\]
*1813 u_chip\.u_crc2\.crc_start
*1814 u_chip\.u_crc2\.crc_valid
*1815 u_chip\.u_crc2\.idx\[0\]
*1816 u_chip\.u_crc2\.idx\[1\]
*1817 u_chip\.u_crc2\.idx\[2\]
*1818 u_chip\.wait_cnt\[0\]
*1819 u_chip\.wait_cnt\[1\]
*1820 u_chip\.wait_cnt\[2\]
*1821 u_chip\.wait_cnt\[3\]
*1822 FILLER_0_0
*1823 FILLER_0_1001
*1824 FILLER_0_1008
*1825 FILLER_0_1015
*1826 FILLER_0_1022
*1827 FILLER_0_1029
*1828 FILLER_0_1036
*1829 FILLER_0_1043
*1830 FILLER_0_105
*1831 FILLER_0_1050
*1832 FILLER_0_1057
*1833 FILLER_0_112
*1834 FILLER_0_119
*1835 FILLER_0_126
*1836 FILLER_0_133
*1837 FILLER_0_14
*1838 FILLER_0_140
*1839 FILLER_0_147
*1840 FILLER_0_154
*1841 FILLER_0_161
*1842 FILLER_0_168
*1843 FILLER_0_175
*1844 FILLER_0_182
*1845 FILLER_0_189
*1846 FILLER_0_196
*1847 FILLER_0_203
*1848 FILLER_0_21
*1849 FILLER_0_210
*1850 FILLER_0_217
*1851 FILLER_0_224
*1852 FILLER_0_231
*1853 FILLER_0_238
*1854 FILLER_0_245
*1855 FILLER_0_252
*1856 FILLER_0_259
*1857 FILLER_0_266
*1858 FILLER_0_273
*1859 FILLER_0_28
*1860 FILLER_0_280
*1861 FILLER_0_287
*1862 FILLER_0_294
*1863 FILLER_0_301
*1864 FILLER_0_308
*1865 FILLER_0_315
*1866 FILLER_0_322
*1867 FILLER_0_329
*1868 FILLER_0_336
*1869 FILLER_0_343
*1870 FILLER_0_35
*1871 FILLER_0_350
*1872 FILLER_0_357
*1873 FILLER_0_364
*1874 FILLER_0_371
*1875 FILLER_0_378
*1876 FILLER_0_385
*1877 FILLER_0_392
*1878 FILLER_0_399
*1879 FILLER_0_406
*1880 FILLER_0_413
*1881 FILLER_0_42
*1882 FILLER_0_420
*1883 FILLER_0_427
*1884 FILLER_0_434
*1885 FILLER_0_441
*1886 FILLER_0_448
*1887 FILLER_0_455
*1888 FILLER_0_462
*1889 FILLER_0_469
*1890 FILLER_0_476
*1891 FILLER_0_483
*1892 FILLER_0_49
*1893 FILLER_0_490
*1894 FILLER_0_497
*1895 FILLER_0_504
*1896 FILLER_0_511
*1897 FILLER_0_518
*1898 FILLER_0_525
*1899 FILLER_0_532
*1900 FILLER_0_539
*1901 FILLER_0_546
*1902 FILLER_0_553
*1903 FILLER_0_56
*1904 FILLER_0_560
*1905 FILLER_0_567
*1906 FILLER_0_574
*1907 FILLER_0_581
*1908 FILLER_0_588
*1909 FILLER_0_595
*1910 FILLER_0_602
*1911 FILLER_0_609
*1912 FILLER_0_616
*1913 FILLER_0_623
*1914 FILLER_0_63
*1915 FILLER_0_630
*1916 FILLER_0_637
*1917 FILLER_0_644
*1918 FILLER_0_651
*1919 FILLER_0_658
*1920 FILLER_0_665
*1921 FILLER_0_672
*1922 FILLER_0_679
*1923 FILLER_0_686
*1924 FILLER_0_693
*1925 FILLER_0_7
*1926 FILLER_0_70
*1927 FILLER_0_700
*1928 FILLER_0_707
*1929 FILLER_0_714
*1930 FILLER_0_721
*1931 FILLER_0_728
*1932 FILLER_0_735
*1933 FILLER_0_742
*1934 FILLER_0_749
*1935 FILLER_0_756
*1936 FILLER_0_763
*1937 FILLER_0_77
*1938 FILLER_0_770
*1939 FILLER_0_777
*1940 FILLER_0_784
*1941 FILLER_0_791
*1942 FILLER_0_798
*1943 FILLER_0_805
*1944 FILLER_0_812
*1945 FILLER_0_819
*1946 FILLER_0_826
*1947 FILLER_0_833
*1948 FILLER_0_84
*1949 FILLER_0_840
*1950 FILLER_0_847
*1951 FILLER_0_854
*1952 FILLER_0_861
*1953 FILLER_0_868
*1954 FILLER_0_875
*1955 FILLER_0_882
*1956 FILLER_0_889
*1957 FILLER_0_896
*1958 FILLER_0_903
*1959 FILLER_0_91
*1960 FILLER_0_910
*1961 FILLER_0_917
*1962 FILLER_0_924
*1963 FILLER_0_931
*1964 FILLER_0_938
*1965 FILLER_0_945
*1966 FILLER_0_952
*1967 FILLER_0_959
*1968 FILLER_0_966
*1969 FILLER_0_973
*1970 FILLER_0_98
*1971 FILLER_0_980
*1972 FILLER_0_987
*1973 FILLER_0_994
*1974 FILLER_100_0
*1975 FILLER_100_1004
*1976 FILLER_100_1011
*1977 FILLER_100_1018
*1978 FILLER_100_105
*1979 FILLER_100_1052
*1980 FILLER_100_1059
*1981 FILLER_100_112
*1982 FILLER_100_119
*1983 FILLER_100_126
*1984 FILLER_100_133
*1985 FILLER_100_14
*1986 FILLER_100_140
*1987 FILLER_100_147
*1988 FILLER_100_154
*1989 FILLER_100_156
*1990 FILLER_100_164
*1991 FILLER_100_166
*1992 FILLER_100_173
*1993 FILLER_100_184
*1994 FILLER_100_191
*1995 FILLER_100_198
*1996 FILLER_100_202
*1997 FILLER_100_21
*1998 FILLER_100_240
*1999 FILLER_100_247