*SPEF "ieee 1481-1999"
*DESIGN "counter_8bit"
*DATE "17:37:41 Wednesday February 04, 2026"
*VENDOR "The OpenROAD Project"
*PROGRAM "OpenROAD"
*VERSION "dfc4f595dfb2e1c346492ff1f0274abb28725acf"
*DESIGN_FLOW "NAME_SCOPE LOCAL" "PIN_CAP NONE"
*DIVIDER /
*DELIMITER :
*BUS_DELIMITER []
*T_UNIT 1 NS
*C_UNIT 1 PF
*R_UNIT 1 OHM
*L_UNIT 1 HENRY

*NAME_MAP
*3 clk_i
*4 count_o[0]
*5 count_o[1]
*6 count_o[2]
*7 count_o[3]
*8 count_o[4]
*9 count_o[5]
*10 count_o[6]
*11 count_o[7]
*12 rst_ni
*13 _00_
*14 _01_
*15 _02_
*16 _03_
*17 _04_
*18 _05_
*19 _06_
*20 _07_
*21 _08_
*22 _09_
*23 _10_
*24 _11_
*25 _12_
*26 _13_
*27 _14_
*28 _15_
*29 _16_
*30 _17_
*31 _18_
*32 _19_
*33 _20_
*34 _21_
*35 _22_
*36 clknet_0_clk_i
*37 clknet_1_0__leaf_clk_i
*38 clknet_1_1__leaf_clk_i
*39 net
*40 net1
*41 net10
*42 net11
*43 net12
*44 net13
*45 net14
*46 net15
*47 net16
*48 net17
*49 net18
*50 net19
*51 net2
*52 net20
*53 net21
*54 net22
*55 net23
*56 net24
*57 net25
*58 net26
*59 net27
*60 net28
*61 net29
*62 net3
*63 net30
*64 net31
*65 net32
*66 net33
*67 net4
*68 net5
*69 net6
*70 net7
*71 net8
*72 net9
*73 FILLER_0_4
*74 FILLER_0_73
*75 FILLER_1_0
*76 FILLER_1_2
*77 FILLER_1_37
*78 FILLER_1_46
*79 FILLER_1_7
*80 FILLER_1_9
*81 FILLER_2_38
*82 FILLER_3_0
*83 FILLER_3_24
*84 FILLER_4_0
*85 FILLER_4_2
*86 FILLER_5_37
*87 FILLER_5_39
*88 FILLER_5_47
*89 FILLER_5_8
*90 FILLER_6_0
*91 FILLER_6_38
*92 FILLER_7_0
*93 FILLER_7_11
*94 FILLER_7_2
*95 FILLER_8_14
*96 FILLER_8_23
*97 FILLER_8_25
*98 FILLER_8_31
*99 FILLER_8_33
*100 FILLER_8_4
*101 FILLER_8_73
*102 FILLER_8_8
*103 _31_
*104 _32_
*105 _33_
*106 _34_
*107 _35_
*108 _36_
*109 _37_
*110 _38_
*111 _39_
*112 _40_
*113 _41_
*114 _42_
*115 _43_
*116 _44_
*117 _45_
*118 _46_
*119 _47_
*120 _48_
*121 _49_
*122 _50_
*123 _51_
*124 _52_
*125 _53_
*126 _54_
*127 _54__10
*128 _55_
*129 _55__17
*130 _56_
*131 _56__16
*132 _57_
*133 _57__15
*134 _58_
*135 _58__14
*136 _59_
*137 _59__13
*138 _60_
*139 _60__12
*140 _61_
*141 _61__11
*142 clkbuf_0_clk_i
*143 clkbuf_1_0__f_clk_i
*144 clkbuf_1_1__f_clk_i
*145 hold18
*146 hold19
*147 hold20
*148 hold21
*149 hold22
*150 hold23
*151 hold24
*152 hold25
*153 hold26
*154 hold27
*155 hold28
*156 hold29
*157 hold30
*158 hold31
*159 hold32
*160 hold33
*161 hold34
*162 input1
*163 output2
*164 output3
*165 output4
*166 output5
*167 output6
*168 output7
*169 output8
*170 output9

*PORTS
clk_i I
count_o[0] O
count_o[1] O
count_o[2] O
count_o[3] O
count_o[4] O
count_o[5] O
count_o[6] O
count_o[7] O
rst_ni I

*D_NET *3 0.00188953
*CONN
*P clk_i I
*I *142:A I *D sg13g2_buf_16
*CAP
1 clk_i 0.000805493
2 *142:A 0.000139271
3 *3:14 0.000944764
4 *142:A *103:A 0
5 *142:A *36:25 0
6 *3:14 count_o[1] 0
7 *3:14 count_o[2] 0
8 *3:14 *103:A 0
9 *3:14 *5:12 0
10 *3:14 *36:25 0
*RES
1 clk_i *3:14 27.8692 
2 *3:14 *142:A 21.5656 
*END

*D_NET *4 0.000991248
*CONN
*P count_o[0] O
*I *163:X O *D sg13g2_buf_1
*CAP
1 count_o[0] 0.000495624
2 *163:X 0.000495624
3 count_o[0] *105:A 0
4 count_o[0] *105:B 0
*RES
1 *163:X count_o[0] 45.9637 
*END

*D_NET *5 0.00542065
*CONN
*P count_o[1] O
*I *164:X O *D sg13g2_buf_1
*CAP
1 count_o[1] 0.000354294
2 *164:X 0.00059882
3 *5:12 0.00137195
4 *5:8 0.00161648
5 count_o[1] count_o[2] 0
6 *5:8 *38:36 0
7 *5:8 *63:10 0.000880398
8 *5:12 count_o[6] 0
9 *5:12 count_o[7] 0.000598709
10 *5:12 *103:A 0
11 *5:12 *145:A 0
12 *5:12 *36:25 0
13 *5:12 *72:8 0
14 *3:14 count_o[1] 0
15 *3:14 *5:12 0
*RES
1 *164:X *5:8 48.2606 
2 *5:8 *5:12 31.5669 
3 *5:12 count_o[1] 22.7707 
*END

*D_NET *6 0.00636937
*CONN
*P count_o[2] O
*I *165:X O *D sg13g2_buf_1
*CAP
1 count_o[2] 0.00162433
2 *165:X 0.000298146
3 *6:10 0.00192247
4 count_o[2] *166:A 0
5 count_o[2] *13:8 0
6 count_o[2] *39:10 0
7 count_o[2] *50:12 0
8 count_o[2] *53:10 0
9 count_o[2] *62:8 0
10 count_o[2] *67:18 0.00237043
11 count_o[2] *67:33 0.000106258
12 count_o[2] *68:10 0
13 *6:10 *105:B 4.77348e-05
14 *6:10 *40:10 0
15 *6:10 *40:20 0
16 *6:10 *67:18 0
17 count_o[1] count_o[2] 0
18 *3:14 count_o[2] 0
*RES
1 *165:X *6:10 42.6162 
2 *6:10 count_o[2] 20.3219 
*END

*D_NET *7 0.00238902
*CONN
*P count_o[3] O
*I *166:X O *D sg13g2_buf_1
*CAP
1 count_o[3] 0.000605373
2 *166:X 0.000589136
3 *7:10 0.00119451
4 *7:10 *106:B1 0
5 *7:10 *40:20 0
6 *7:10 *54:19 0
7 *7:10 *54:43 0
*RES
1 *166:X *7:10 46.7877 
2 *7:10 count_o[3] 27.519 
*END

*D_NET *8 0.00126713
*CONN
*P count_o[4] O
*I *167:X O *D sg13g2_buf_1
*CAP
1 count_o[4] 0.000633567
2 *167:X 0.000633567
3 count_o[4] count_o[5] 0
4 count_o[4] *115:A 0
5 count_o[4] *40:98 0
*RES
1 *167:X count_o[4] 46.5096 
*END

*D_NET *9 0.00123081
*CONN
*P count_o[5] O
*I *168:X O *D sg13g2_buf_1
*CAP
1 count_o[5] 0.000615403
2 *168:X 0.000615403
3 count_o[5] *120:A 0
4 count_o[5] *162:A 0
5 count_o[4] count_o[5] 0
*RES
1 *168:X count_o[5] 45.2118 
*END

*D_NET *10 0.00149907
*CONN
*P count_o[6] O
*I *169:X O *D sg13g2_buf_1
*CAP
1 count_o[6] 0.000749536
2 *169:X 0.000749536
3 count_o[6] count_o[7] 0
4 count_o[6] *169:A 0
5 count_o[6] *42:12 0
6 count_o[6] *71:12 0
7 *5:12 count_o[6] 0
*RES
1 *169:X count_o[6] 47.21 
*END

*D_NET *11 0.00201155
*CONN
*P count_o[7] O
*I *170:X O *D sg13g2_buf_1
*CAP
1 count_o[7] 0.000706419
2 *170:X 0.000706419
3 count_o[7] *145:A 0
4 count_o[7] *42:12 0
5 count_o[7] *72:8 0
6 count_o[6] count_o[7] 0
7 *5:12 count_o[7] 0.000598709
*RES
1 *170:X count_o[7] 47.3645 
*END

*D_NET *12 0.00133979
*CONN
*P rst_ni I
*I *162:A I *D sg13g2_buf_1
*CAP
1 rst_ni 0.000565365
2 *162:A 0.000565365
3 *162:A *120:A 0.000209056
4 *162:A *40:98 0
5 count_o[5] *162:A 0
*RES
1 rst_ni *162:A 45.5517 
*END

*D_NET *13 0.000367994
*CONN
*I *126:D I *D sg13g2_dfrbpq_1
*I *105:Y O *D sg13g2_nor2_1
*CAP
1 *126:D 0
2 *105:Y 0.000146389
3 *13:8 0.000146389
4 *13:8 *163:A 0
5 *13:8 *39:10 7.52158e-05
6 count_o[2] *13:8 0
*RES
1 *105:Y *13:8 41.5862 
2 *13:8 *126:D 40 
*END

*D_NET *14 0.00166768
*CONN
*I *128:D I *D sg13g2_dfrbpq_1
*I *107:Y O *D sg13g2_a21oi_1
*CAP
1 *128:D 0.000226638
2 *107:Y 0.000424228
3 *14:8 0.000650866
4 *128:D *61:12 0
5 *128:D *62:22 0
6 *14:8 *28:22 0
7 *14:8 *47:14 0
8 *14:8 *52:10 0
9 *14:8 *54:36 0.000235894
10 *14:8 *62:22 0.000130055
11 *14:8 *67:18 0
*RES
1 *107:Y *14:8 44.7998 
2 *14:8 *128:D 41.9673 
*END

*D_NET *15 0.00258569
*CONN
*I *149:A I *D sg13g2_dlygate4sd3_1
*I *111:Y O *D sg13g2_nor2_1
*CAP
1 *149:A 0.000764051
2 *111:Y 0.000446053
3 *15:12 0.0012101
4 *149:A *52:10 0
5 *149:A *67:18 0
6 *15:12 *111:A 8.01118e-05
7 *15:12 *111:B 6.99179e-05
8 *15:12 *112:B_N 0
9 *15:12 *132:RESET_B 1.54556e-05
*RES
1 *111:Y *15:12 44.2333 
2 *15:12 *149:A 45.7886 
*END

*D_NET *16 0.00135998
*CONN
*I *153:A I *D sg13g2_dlygate4sd3_1
*I *114:Y O *D sg13g2_nor3_1
*CAP
1 *153:A 6.32666e-05
2 *114:Y 0.000227107
3 *16:8 0.000290374
4 *16:8 *28:22 0.000779234
*RES
1 *114:Y *16:8 43.5638 
2 *16:8 *153:A 40.5356 
*END

*D_NET *17 0.0013125
*CONN
*I *134:D I *D sg13g2_dfrbpq_1
*I *116:X O *D sg13g2_and2_1
*CAP
1 *134:D 0.000543714
2 *116:X 0.000543714
3 *134:D *116:B 0.000144842
4 *134:D *117:A1 0
5 *134:D *134:RESET_B 0
6 *134:D *136:D 0
7 *134:D *155:A 8.02267e-05
8 *134:D *28:37 0
9 *134:D *40:98 0
10 *134:D *69:35 0
*RES
1 *116:X *134:D 45.5311 
*END

*D_NET *18 0.00174135
*CONN
*I *156:A I *D sg13g2_dlygate4sd3_1
*I *120:Y O *D sg13g2_nor2_1
*CAP
1 *156:A 3.4601e-05
2 *120:Y 0.000327582
3 *18:8 0.000362183
4 *18:8 *119:B 0.000724195
5 *18:8 *40:70 0.000292789
*RES
1 *120:Y *18:8 44.5526 
2 *18:8 *156:A 40.3193 
*END

*D_NET *19 0.000785562
*CONN
*I *160:A I *D sg13g2_dlygate4sd3_1
*I *123:X O *D sg13g2_and3_1
*CAP
1 *160:A 0.00026615
2 *123:X 0.00026615
3 *160:A *123:B 0
4 *160:A *125:B1 9.46475e-05
5 *160:A *34:22 4.77083e-05
6 *160:A *70:10 0.000110906
*RES
1 *123:X *160:A 43.1621 
*END

*D_NET *20 0.00106722
*CONN
*I *146:A I *D sg13g2_dlygate4sd3_1
*I *125:Y O *D sg13g2_a21oi_1
*CAP
1 *146:A 5.12277e-05
2 *125:Y 0.000482383
3 *20:8 0.00053361
4 *146:A *36:43 0
5 *146:A *38:10 0
6 *20:8 *38:16 0
7 *20:8 *38:36 0
8 *20:8 *63:10 0
9 *20:8 *63:18 0
*RES
1 *125:Y *20:8 44.7998 
2 *20:8 *146:A 40.5356 
*END

*D_NET *21 0.0039326
*CONN
*I *124:A1 I *D sg13g2_o21ai_1
*I *125:A1 I *D sg13g2_a21oi_1
*I *103:Y O *D sg13g2_inv_1
*CAP
1 *124:A1 0
2 *125:A1 0
3 *103:Y 0.000579826
4 *21:20 0.000665285
5 *21:10 0.00124511
6 *21:10 *123:A 0
7 *21:10 *47:14 0.000619095
8 *21:20 *123:A 0.000127825
9 *21:20 *40:70 0
10 *21:20 *47:14 0
11 *21:20 *63:18 0.000695459
*RES
1 *103:Y *21:10 47.313 
2 *21:10 *21:20 47.6014 
3 *21:20 *125:A1 40 
4 *21:10 *124:A1 40 
*END

*D_NET *22 0.00107167
*CONN
*I *114:A I *D sg13g2_nor3_1
*I *105:B I *D sg13g2_nor2_1
*I *104:Y O *D sg13g2_inv_1
*CAP
1 *114:A 0
2 *105:B 0.00021957
3 *104:Y 0.000511968
4 *22:24 0.000292398
5 *105:B *105:A 0
6 *105:B *40:20 0
7 *105:B *67:18 0
8 *22:24 *67:18 0
9 count_o[0] *105:B 0
10 *6:10 *105:B 4.77348e-05
*RES
1 *104:Y *105:B 42.2454 
2 *104:Y *22:24 42.9561 
3 *22:24 *114:A 40 
*END

*D_NET *23 0.00215352
*CONN
*I *107:B1 I *D sg13g2_a21oi_1
*I *106:Y O *D sg13g2_o21ai_1
*CAP
1 *107:B1 0.000679262
2 *106:Y 0.000679262
3 *107:B1 *106:B1 1.54008e-05
4 *107:B1 *106:A2 0.000112359
5 *107:B1 *107:A2 0
6 *107:B1 *151:A 0.000667237
7 *107:B1 *37:12 0
*RES
1 *106:Y *107:B1 47.416 
*END

*D_NET *24 0.00200909
*CONN
*I *148:A I *D sg13g2_dlygate4sd3_1
*I *108:Y O *D sg13g2_a21oi_1
*CAP
1 *148:A 0.000724063
2 *108:Y 0.000724063
3 *148:A *28:10 8.00842e-05
4 *148:A *50:22 1.54008e-05
5 *148:A *51:8 0
6 *148:A *52:10 0
7 *148:A *55:14 0
8 *148:A *62:22 0.000465481
*RES
1 *108:Y *148:A 47.5499 
*END

*D_NET *25 0.00386828
*CONN
*I *112:B_N I *D sg13g2_nor2b_1
*I *110:B I *D sg13g2_nand2_1
*I *109:Y O *D sg13g2_nand3_1
*CAP
1 *112:B_N 0.000627427
2 *110:B 5.66942e-05
3 *109:Y 0.000292129
4 *25:10 0.000684121
5 *25:8 0.000292129
6 *110:B *166:A 0
7 *112:B_N *132:D 0
8 *112:B_N *166:A 0
9 *112:B_N *28:37 0
10 *112:B_N *39:10 0.000144998
11 *112:B_N *40:10 0
12 *112:B_N *40:20 0
13 *25:8 *163:A 0.000447182
14 *25:8 *166:A 0
15 *25:8 *37:12 0.000555155
16 *25:8 *51:10 0.000768442
17 *15:12 *112:B_N 0
*RES
1 *109:Y *25:8 45.5414 
2 *25:8 *25:10 20 
3 *25:10 *110:B 20.2628 
4 *25:10 *112:B_N 24.4912 
*END

*D_NET *26 0.000322082
*CONN
*I *111:B I *D sg13g2_nor2_1
*I *110:Y O *D sg13g2_nand2_1
*CAP
1 *111:B 0.000126082
2 *110:Y 0.000126082
3 *15:12 *111:B 6.99179e-05
*RES
1 *110:Y *111:B 41.3802 
*END

*D_NET *27 0.00200597
*CONN
*I *152:A I *D sg13g2_dlygate4sd3_1
*I *112:Y O *D sg13g2_nor2b_1
*CAP
1 *152:A 0.00017936
2 *112:Y 0.00032101
3 *27:8 0.00050037
4 *152:A *31:10 1.54008e-05
5 *152:A *33:14 0
6 *27:8 *47:14 0
7 *27:8 *55:25 0.000989834
*RES
1 *112:Y *27:8 44.7998 
2 *27:8 *152:A 41.6171 
*END

*D_NET *28 0.011076
*CONN
*I *115:B I *D sg13g2_xor2_1
*I *118:C I *D sg13g2_nand3_1
*I *122:D I *D sg13g2_nand4_1
*I *117:A2 I *D sg13g2_a21oi_1
*I *114:C I *D sg13g2_nor3_1
*I *113:X O *D sg13g2_and4_1
*CAP
1 *115:B 0
2 *118:C 0
3 *122:D 0
4 *117:A2 0
5 *114:C 0
6 *113:X 0.000151765
7 *28:62 0.000174689
8 *28:56 0.000543727
9 *28:41 0.000514213
10 *28:37 0.00107564
11 *28:22 0.00131024
12 *28:16 0.0007958
13 *28:10 0.000567796
14 *28:10 *55:14 1.54008e-05
15 *28:10 *68:10 0
16 *28:16 *54:36 0
17 *28:16 *55:14 0
18 *28:16 *68:10 0.00020799
19 *28:22 *52:10 0
20 *28:22 *54:36 0.000342229
21 *28:22 *55:25 0.00120523
22 *28:37 *114:B 0.000177414
23 *28:37 *119:A 0
24 *28:37 *136:D 0
25 *28:37 *155:A 0
26 *28:37 *40:6 0
27 *28:37 *40:8 0
28 *28:37 *40:98 0.000631167
29 *28:37 *47:8 0
30 *28:41 *40:98 0
31 *28:41 *66:8 0
32 *28:56 *117:B1 0.00060801
33 *28:56 *118:B 4.77079e-05
34 *28:56 *31:10 0.0002408
35 *28:56 *40:98 0
36 *28:56 *58:21 0.000337198
37 *28:56 *66:8 0
38 *28:56 *69:14 0.000159193
39 *28:56 *69:16 0.000106965
40 *28:56 *69:20 0.000607939
41 *28:62 *58:27 0.000395579
42 *28:62 *63:10 0
43 *28:62 *63:18 0
44 *112:B_N *28:37 0
45 *134:D *28:37 0
46 *148:A *28:10 8.00842e-05
47 *14:8 *28:22 0
48 *16:8 *28:22 0.000779234
*RES
1 *113:X *28:10 41.3802 
2 *28:10 *28:16 43.7801 
3 *28:16 *28:22 27.0967 
4 *28:22 *114:C 20 
5 *28:22 *28:37 9.5378 
6 *28:37 *28:41 21.339 
7 *28:41 *117:A2 40 
8 *28:41 *28:56 26.2418 
9 *28:56 *28:62 42.3278 
10 *28:62 *122:D 20 
11 *28:56 *118:C 20 
12 *28:37 *115:B 20 
*END

*D_NET *29 0.000559839
*CONN
*I *116:B I *D sg13g2_and2_1
*I *115:X O *D sg13g2_xor2_1
*CAP
1 *116:B 0.000207498
2 *115:X 0.000207498
3 *116:B *40:98 0
4 *116:B *69:35 0
5 *134:D *116:B 0.000144842
*RES
1 *115:X *116:B 42.2454 
*END

*D_NET *30 0.00101301
*CONN
*I *155:A I *D sg13g2_dlygate4sd3_1
*I *117:Y O *D sg13g2_a21oi_1
*CAP
1 *155:A 5.27806e-05
2 *117:Y 0.000236341
3 *30:10 0.000289122
4 *30:10 *134:RESET_B 0.000177272
5 *30:10 *136:RESET_B 0.000177272
6 *30:10 *66:8 0
7 *134:D *155:A 8.02267e-05
8 *28:37 *155:A 0
*RES
1 *117:Y *30:10 42.7707 
2 *30:10 *155:A 40.5356 
*END

*D_NET *31 0.00412168
*CONN
*I *121:B I *D sg13g2_nand2b_1
*I *119:B I *D sg13g2_nand2_1
*I *118:Y O *D sg13g2_nand3_1
*CAP
1 *121:B 0.000157423
2 *119:B 0.000519795
3 *118:Y 0.000893426
4 *31:10 0.00157064
5 *119:B *40:70 0
6 *119:B *47:14 0
7 *121:B *40:70 0
8 *121:B *47:14 0
9 *31:10 *134:CLK 0
10 *31:10 *154:A 0
11 *31:10 *33:14 0
12 *31:10 *34:6 0
13 *31:10 *34:22 0
14 *31:10 *38:16 0
15 *152:A *31:10 1.54008e-05
16 *18:8 *119:B 0.000724195
17 *28:56 *31:10 0.0002408
*RES
1 *118:Y *31:10 48.9198 
2 *31:10 *119:B 45.2942 
3 *31:10 *121:B 41.339 
*END

*D_NET *32 0.000360426
*CONN
*I *120:B I *D sg13g2_nor2_1
*I *119:Y O *D sg13g2_nand2_1
*CAP
1 *120:B 3.08182e-05
2 *119:Y 8.74257e-05
3 *32:8 0.000118244
4 *120:B *120:A 0
5 *120:B *40:10 4.77425e-05
6 *32:8 *56:8 7.61961e-05
*RES
1 *119:Y *32:8 40.8446 
2 *32:8 *120:B 40.3193 
*END

*D_NET *33 0.00227589
*CONN
*I *159:A I *D sg13g2_dlygate4sd3_1
*I *121:Y O *D sg13g2_nand2b_1
*CAP
1 *159:A 0.000213695
2 *121:Y 0.000683311
3 *33:14 0.000897006
4 *159:A *123:B 0
5 *159:A *125:B1 0
6 *159:A *164:A 0
7 *33:14 *121:A_N 0
8 *33:14 *125:B1 0.000273283
9 *33:14 *154:A 0.0002086
10 *33:14 *34:22 0
11 *33:14 *38:16 0
12 *152:A *33:14 0
13 *31:10 *33:14 0
*RES
1 *121:Y *33:14 46.6847 
2 *33:14 *159:A 42.0497 
*END

*D_NET *34 0.00331426
*CONN
*I *125:A2 I *D sg13g2_a21oi_1
*I *123:C I *D sg13g2_and3_1
*I *124:A2 I *D sg13g2_o21ai_1
*I *122:Y O *D sg13g2_nand4_1
*CAP
1 *125:A2 6.80408e-05
2 *123:C 2.47566e-05
3 *124:A2 0.000258995
4 *122:Y 8.36805e-05
5 *34:22 0.00104623
6 *34:6 0.0009142
7 *124:A2 *123:A 0
8 *124:A2 *124:B1 4.77425e-05
9 *124:A2 *125:B1 0
10 *125:A2 *122:A 1.54008e-05
11 *125:A2 *125:B1 0
12 *125:A2 *154:A 1.54556e-05
13 *125:A2 *164:A 0
14 *34:6 *122:A 0.000144815
15 *34:22 *123:B 0
16 *34:22 *154:A 0.0004684
17 *34:22 *40:70 0
18 *34:22 *70:10 0.000178836
19 *160:A *34:22 4.77083e-05
20 *31:10 *34:6 0
21 *31:10 *34:22 0
22 *33:14 *34:22 0
*RES
1 *122:Y *34:6 20.9682 
2 *34:6 *34:22 47.725 
3 *34:22 *124:A2 22.5544 
4 *34:22 *123:C 20.3502 
5 *34:6 *125:A2 20.8858 
*END

*D_NET *35 0.00208977
*CONN
*I *125:B1 I *D sg13g2_a21oi_1
*I *124:Y O *D sg13g2_o21ai_1
*CAP
1 *125:B1 0.000781594
2 *124:Y 0.000781594
3 *125:B1 *121:A_N 0
4 *125:B1 *124:B1 4.77425e-05
5 *125:B1 *154:A 0
6 *125:B1 *70:10 0.000110906
7 *124:A2 *125:B1 0
8 *125:A2 *125:B1 0
9 *159:A *125:B1 0
10 *160:A *125:B1 9.46475e-05
11 *33:14 *125:B1 0.000273283
*RES
1 *124:Y *125:B1 48.1576 
*END

*D_NET *36 0.00445521
*CONN
*I *144:A I *D sg13g2_buf_16
*I *143:A I *D sg13g2_buf_16
*I *142:X O *D sg13g2_buf_16
*CAP
1 *144:A 0.000142911
2 *143:A 0.000107895
3 *142:X 0
4 *36:43 0.000883105
5 *36:25 0.00101501
6 *36:13 0.0019768
7 *36:6 0.000329492
8 *143:A *130:RESET_B 0
9 *143:A *37:32 0
10 *144:A *169:A 0
11 *36:25 *128:CLK 0
12 *36:25 *130:RESET_B 0
13 *36:25 *37:32 0
14 *36:25 *50:12 0
15 *36:25 *62:51 0
16 *36:25 *72:8 0
17 *36:43 *138:CLK 0
18 *36:43 *169:A 0
19 *36:43 *38:36 0
20 *36:43 *42:12 0
21 *36:43 *62:51 0
22 *36:43 *63:10 0
23 *36:43 *71:12 0
24 *36:43 *72:8 0
25 *142:A *36:25 0
26 *146:A *36:43 0
27 *3:14 *36:25 0
28 *5:12 *36:25 0
*RES
1 *142:X *36:6 40 
2 *36:6 *36:13 3.605 
3 *36:13 *36:25 28.7356 
4 *36:25 *143:A 21.1845 
5 *36:13 *36:43 26.8289 
6 *36:43 *144:A 21.5656 
*END

*D_NET *37 0.00394111
*CONN
*I *128:CLK I *D sg13g2_dfrbpq_1
*I *130:CLK I *D sg13g2_dfrbpq_1
*I *132:CLK I *D sg13g2_dfrbpq_1
*I *126:CLK I *D sg13g2_dfrbpq_1
*I *143:X O *D sg13g2_buf_16
*CAP
1 *128:CLK 0.000214303
2 *130:CLK 0
3 *132:CLK 0.000165136
4 *126:CLK 2.77263e-05
5 *143:X 0
6 *37:32 0.000622083
7 *37:12 0.000877713
8 *37:6 0.00109263
9 *126:CLK *107:A2 0
10 *128:CLK *50:12 0
11 *132:CLK *107:A2 0.000273766
12 *132:CLK *111:A 0
13 *37:12 *107:A2 0.000112596
14 *37:12 *111:A 0
15 *37:12 *51:10 0
16 *37:12 *61:12 0
17 *37:12 *61:20 0
18 *37:32 *53:10 0
19 *37:32 *61:12 0
20 *107:B1 *37:12 0
21 *143:A *37:32 0
22 *25:8 *37:12 0.000555155
23 *36:25 *128:CLK 0
24 *36:25 *37:32 0
*RES
1 *143:X *37:6 40 
2 *37:6 *37:12 27.4057 
3 *37:12 *126:CLK 20.3502 
4 *37:12 *132:CLK 21.8334 
5 *37:6 *37:32 24.9337 
6 *37:32 *130:CLK 20 
7 *37:32 *128:CLK 20.9868 
*END

*D_NET *38 0.00386099
*CONN
*I *140:CLK I *D sg13g2_dfrbpq_1
*I *138:CLK I *D sg13g2_dfrbpq_1
*I *136:CLK I *D sg13g2_dfrbpq_1
*I *134:CLK I *D sg13g2_dfrbpq_1
*I *144:X O *D sg13g2_buf_16
*CAP
1 *140:CLK 0
2 *138:CLK 0.000201478
3 *136:CLK 0
4 *134:CLK 0.000189348
5 *144:X 0.000196727
6 *38:36 0.000747152
7 *38:16 0.000986618
8 *38:10 0.00153967
9 *134:CLK *134:RESET_B 0
10 *134:CLK *136:RESET_B 0
11 *138:CLK *62:51 0
12 *38:10 *164:A 0
13 *38:16 *117:B1 0
14 *38:16 *136:RESET_B 0
15 *38:16 *62:51 0
16 *38:16 *69:14 0
17 *38:36 *62:51 0
18 *38:36 *63:10 0
19 *146:A *38:10 0
20 *5:8 *38:36 0
21 *20:8 *38:16 0
22 *20:8 *38:36 0
23 *31:10 *134:CLK 0
24 *31:10 *38:16 0
25 *33:14 *38:16 0
26 *36:43 *138:CLK 0
27 *36:43 *38:36 0
*RES
1 *144:X *38:10 41.9364 
2 *38:10 *38:16 27.622 
3 *38:16 *134:CLK 22.1836 
4 *38:16 *136:CLK 20 
5 *38:10 *38:36 25.3972 
6 *38:36 *138:CLK 21.8334 
7 *38:36 *140:CLK 20 
*END

*D_NET *39 0.000991733
*CONN
*I *126:RESET_B I *D sg13g2_dfrbpq_1
*I *127:L_HI O *D sg13g2_tiehi
*CAP
1 *126:RESET_B 0
2 *127:L_HI 0.00038576
3 *39:10 0.00038576
4 *39:10 *166:A 0
5 *39:10 *40:20 0
6 count_o[2] *39:10 0
7 *112:B_N *39:10 0.000144998
8 *13:8 *39:10 7.52158e-05
*RES
1 *127:L_HI *39:10 43.605 
2 *39:10 *126:RESET_B 40 
*END

*D_NET *40 0.0104032
*CONN
*I *116:A I *D sg13g2_and2_1
*I *123:A I *D sg13g2_and3_1
*I *124:B1 I *D sg13g2_o21ai_1
*I *119:A I *D sg13g2_nand2_1
*I *104:A I *D sg13g2_inv_1
*I *106:B1 I *D sg13g2_o21ai_1
*I *110:A I *D sg13g2_nand2_1
*I *162:X O *D sg13g2_buf_1
*CAP
1 *116:A 0
2 *123:A 0.000376764
3 *124:B1 2.60565e-05
4 *119:A 2.77263e-05
5 *104:A 0
6 *106:B1 0.000284506
7 *110:A 3.07512e-05
8 *162:X 0
9 *40:98 0.00069911
10 *40:70 0.00129272
11 *40:48 0.000156877
12 *40:20 0.000937531
13 *40:10 0.00114091
14 *40:8 0.000480669
15 *40:6 0.00107839
16 *40:4 0.000796415
17 *106:B1 *105:A 0.000717307
18 *106:B1 *106:A2 1.54008e-05
19 *106:B1 *54:19 0.00016019
20 *123:A *138:D 0
21 *123:A *62:51 0
22 *40:6 *120:A 0
23 *40:8 *120:A 0
24 *40:10 *114:B 0.000209871
25 *40:10 *67:18 0
26 *40:20 *105:A 0.000395396
27 *40:20 *166:A 0.000242213
28 *40:48 *45:8 7.62389e-05
29 *40:48 *67:18 4.77699e-05
30 *40:70 *168:A 0
31 *40:98 *115:A 0
32 *40:98 *120:A 0
33 *40:98 *69:35 0
34 count_o[4] *40:98 0
35 *105:B *40:20 0
36 *107:B1 *106:B1 1.54008e-05
37 *112:B_N *40:10 0
38 *112:B_N *40:20 0
39 *116:B *40:98 0
40 *119:B *40:70 0
41 *120:B *40:10 4.77425e-05
42 *121:B *40:70 0
43 *124:A2 *123:A 0
44 *124:A2 *124:B1 4.77425e-05
45 *125:B1 *124:B1 4.77425e-05
46 *134:D *40:98 0
47 *162:A *40:98 0
48 *6:10 *40:10 0
49 *6:10 *40:20 0
50 *7:10 *106:B1 0
51 *7:10 *40:20 0
52 *18:8 *40:70 0.000292789
53 *21:10 *123:A 0
54 *21:20 *123:A 0.000127825
55 *21:20 *40:70 0
56 *28:37 *119:A 0
57 *28:37 *40:6 0
58 *28:37 *40:8 0
59 *28:37 *40:98 0.000631167
60 *28:41 *40:98 0
61 *28:56 *40:98 0
62 *34:22 *40:70 0
63 *39:10 *40:20 0
*RES
1 *162:X *40:4 20 
2 *40:4 *40:6 0.9682 
3 *40:6 *40:8 0.9682 
4 *40:8 *40:10 3.4105 
5 *40:10 *40:20 26.7156 
6 *40:20 *110:A 40.3193 
7 *40:20 *106:B1 44.3775 
8 *40:10 *40:48 41.6583 
9 *40:48 *104:A 20 
10 *40:8 *119:A 20.3502 
11 *40:6 *40:70 29.2185 
12 *40:70 *124:B1 40.3193 
13 *40:70 *123:A 44.1239 
14 *40:4 *40:98 47.313 
15 *40:98 *116:A 20 
*END

*D_NET *41 0.00107803
*CONN
*I *140:RESET_B I *D sg13g2_dfrbpq_1
*I *141:L_HI O *D sg13g2_tiehi
*CAP
1 *140:RESET_B 0
2 *141:L_HI 0.000539016
3 *41:10 0.000539016
4 *41:10 *42:12 0
5 *41:10 *71:12 0
*RES
1 *141:L_HI *41:10 45.6444 
2 *41:10 *140:RESET_B 40 
*END

*D_NET *42 0.00181273
*CONN
*I *138:RESET_B I *D sg13g2_dfrbpq_1
*I *139:L_HI O *D sg13g2_tiehi
*CAP
1 *138:RESET_B 0
2 *139:L_HI 0.000801601
3 *42:12 0.000801601
4 *42:12 *71:12 0
5 *42:12 *72:8 0.000209526
6 count_o[6] *42:12 0
7 count_o[7] *42:12 0
8 *36:43 *42:12 0
9 *41:10 *42:12 0
*RES
1 *139:L_HI *42:12 48.4666 
2 *42:12 *138:RESET_B 40 
*END

*D_NET *43 0.0012194
*CONN
*I *136:RESET_B I *D sg13g2_dfrbpq_1
*I *137:L_HI O *D sg13g2_tiehi
*CAP
1 *136:RESET_B 0.000521062
2 *137:L_HI 0.000521062
3 *136:RESET_B *118:A 0
4 *136:RESET_B *134:RESET_B 0
5 *136:RESET_B *136:D 0
6 *134:CLK *136:RESET_B 0
7 *30:10 *136:RESET_B 0.000177272
8 *38:16 *136:RESET_B 0
*RES
1 *137:L_HI *136:RESET_B 45.7268 
*END

*D_NET *44 0.00192512
*CONN
*I *134:RESET_B I *D sg13g2_dfrbpq_1
*I *135:L_HI O *D sg13g2_tiehi
*CAP
1 *134:RESET_B 0.000591667
2 *135:L_HI 0.000591667
3 *134:RESET_B *117:A1 8.01116e-05
4 *134:RESET_B *136:D 0.000242328
5 *134:RESET_B *69:35 0.000242071
6 *134:D *134:RESET_B 0
7 *134:CLK *134:RESET_B 0
8 *136:RESET_B *134:RESET_B 0
9 *30:10 *134:RESET_B 0.000177272
*RES
1 *135:L_HI *134:RESET_B 46.4128 
*END

*D_NET *45 0.000736511
*CONN
*I *132:RESET_B I *D sg13g2_dfrbpq_1
*I *133:L_HI O *D sg13g2_tiehi
*CAP
1 *132:RESET_B 4.76082e-05
2 *133:L_HI 0.000234687
3 *45:8 0.000282295
4 *132:RESET_B *111:A 0
5 *132:RESET_B *132:D 8.02267e-05
6 *45:8 *67:18 0
7 *15:12 *132:RESET_B 1.54556e-05
8 *40:48 *45:8 7.62389e-05
*RES
1 *133:L_HI *45:8 42.575 
2 *45:8 *132:RESET_B 40.5356 
*END

*D_NET *46 0.000343303
*CONN
*I *130:RESET_B I *D sg13g2_dfrbpq_1
*I *131:L_HI O *D sg13g2_tiehi
*CAP
1 *130:RESET_B 0.000171651
2 *131:L_HI 0.000171651
3 *143:A *130:RESET_B 0
4 *36:25 *130:RESET_B 0
*RES
1 *131:L_HI *130:RESET_B 41.8334 
*END

*D_NET *47 0.0037515
*CONN
*I *128:RESET_B I *D sg13g2_dfrbpq_1
*I *129:L_HI O *D sg13g2_tiehi
*CAP
1 *128:RESET_B 0
2 *129:L_HI 0.00012888
3 *47:14 0.00112725
4 *47:8 0.00125613
5 *47:14 *50:12 0
6 *47:14 *55:25 0
7 *47:14 *56:8 0.000620142
8 *47:14 *62:12 0
9 *47:14 *62:51 0
10 *47:14 *67:33 0
11 *119:B *47:14 0
12 *121:B *47:14 0
13 *14:8 *47:14 0
14 *21:10 *47:14 0.000619095
15 *21:20 *47:14 0
16 *27:8 *47:14 0
17 *28:37 *47:8 0
*RES
1 *129:L_HI *47:8 41.1845 
2 *47:8 *47:14 33.0913 
3 *47:14 *128:RESET_B 20 
*END

*D_NET *48 0.00102156
*CONN
*I *103:A I *D sg13g2_inv_1
*I *145:X O *D sg13g2_dlygate4sd3_1
*CAP
1 *103:A 0.000270452
2 *145:X 0.000102921
3 *48:8 0.000373372
4 *103:A *145:A 0.000274812
5 *142:A *103:A 0
6 *3:14 *103:A 0
7 *5:12 *103:A 0
*RES
1 *145:X *48:8 41.0918 
2 *48:8 *103:A 42.8325 
*END

*D_NET *49 0.000382206
*CONN
*I *140:D I *D sg13g2_dfrbpq_1
*I *146:X O *D sg13g2_dlygate4sd3_1
*CAP
1 *140:D 0.000191103
2 *146:X 0.000191103
3 *140:D *123:B 0
4 *140:D *138:D 0
5 *140:D *62:51 0
*RES
1 *146:X *140:D 41.9673 
*END

*D_NET *50 0.0030774
*CONN
*I *113:C I *D sg13g2_and4_1
*I *108:B1 I *D sg13g2_a21oi_1
*I *109:C I *D sg13g2_nand3_1
*I *147:X O *D sg13g2_dlygate4sd3_1
*CAP
1 *113:C 2.55652e-05
2 *108:B1 0
3 *109:C 6.38249e-05
4 *147:X 0.000718477
5 *50:22 0.000354815
6 *50:14 0.000316556
7 *50:12 0.000718477
8 *113:C *61:20 4.75265e-05
9 *50:12 *53:10 0.00060844
10 *50:12 *55:14 8.06774e-05
11 *50:12 *61:12 0
12 *50:12 *62:12 0
13 *50:12 *67:33 0
14 *50:22 *108:A1 4.77425e-05
15 *50:22 *113:A 0
16 *50:22 *61:20 7.99033e-05
17 count_o[2] *50:12 0
18 *128:CLK *50:12 0
19 *148:A *50:22 1.54008e-05
20 *36:25 *50:12 0
21 *47:14 *50:12 0
*RES
1 *147:X *50:12 47.725 
2 *50:12 *50:14 20 
3 *50:14 *50:22 2.8531 
4 *50:22 *109:C 20.5974 
5 *50:22 *108:B1 20 
6 *50:14 *113:C 20.3193 
*END

*D_NET *51 0.0048469
*CONN
*I *108:A1 I *D sg13g2_a21oi_1
*I *150:A I *D sg13g2_dlygate4sd3_1
*I *163:A I *D sg13g2_buf_1
*I *126:Q O *D sg13g2_dfrbpq_1
*CAP
1 *108:A1 0.000165988
2 *150:A 3.77166e-05
3 *163:A 0.000258287
4 *126:Q 0.000152699
5 *51:10 0.000463294
6 *51:8 0.000485977
7 *108:A1 *109:B 1.54008e-05
8 *108:A1 *113:A 0.000318769
9 *163:A *105:A 0.00081882
10 *163:A *166:A 0
11 *51:8 *54:36 0
12 *51:10 *105:A 0.000374529
13 *51:10 *113:A 7.5647e-05
14 *51:10 *54:19 0.000287744
15 *51:10 *54:43 0.000128663
16 *148:A *51:8 0
17 *13:8 *163:A 0
18 *25:8 *163:A 0.000447182
19 *25:8 *51:10 0.000768442
20 *37:12 *51:10 0
21 *50:22 *108:A1 4.77425e-05
*RES
1 *126:Q *51:8 41.4008 
2 *51:8 *51:10 3.811 
3 *51:10 *163:A 44.5526 
4 *51:10 *150:A 40.3193 
5 *51:8 *108:A1 41.9055 
*END

*D_NET *52 0.00253736
*CONN
*I *111:A I *D sg13g2_nor2_1
*I *148:X O *D sg13g2_dlygate4sd3_1
*CAP
1 *111:A 0.000494165
2 *148:X 0.000734461
3 *52:10 0.00122863
4 *52:10 *55:14 0
5 *132:RESET_B *111:A 0
6 *132:CLK *111:A 0
7 *148:A *52:10 0
8 *149:A *52:10 0
9 *14:8 *52:10 0
10 *15:12 *111:A 8.01118e-05
11 *28:22 *52:10 0
12 *37:12 *111:A 0
*RES
1 *148:X *52:10 46.4787 
2 *52:10 *111:A 44.429 
*END

*D_NET *53 0.00220662
*CONN
*I *130:D I *D sg13g2_dfrbpq_1
*I *149:X O *D sg13g2_dlygate4sd3_1
*CAP
1 *130:D 0
2 *149:X 0.000620104
3 *53:10 0.000620104
4 *53:10 *61:12 0.000181608
5 *53:10 *62:22 0.000176369
6 *53:10 *67:8 0
7 count_o[2] *53:10 0
8 *37:32 *53:10 0
9 *50:12 *53:10 0.00060844
*RES
1 *149:X *53:10 47.9619 
2 *53:10 *130:D 40 
*END

*D_NET *54 0.00816585
*CONN
*I *113:A I *D sg13g2_and4_1
*I *109:A I *D sg13g2_nand3_1
*I *107:A1 I *D sg13g2_a21oi_1
*I *106:A1 I *D sg13g2_o21ai_1
*I *105:A I *D sg13g2_nor2_1
*I *150:X O *D sg13g2_dlygate4sd3_1
*CAP
1 *113:A 0.00042748
2 *109:A 0
3 *107:A1 0
4 *106:A1 0
5 *105:A 0.000479166
6 *150:X 0
7 *54:43 0.000462124
8 *54:36 0.000691384
9 *54:21 0.000691384
10 *54:19 9.78101e-05
11 *54:6 0.000542333
12 *113:A *61:20 0.00011228
13 *113:A *62:22 0
14 *54:36 *106:A2 0.000209384
15 *54:36 *107:A2 0
16 *54:36 *151:A 0.000597319
17 *54:36 *68:10 0
18 count_o[0] *105:A 0
19 *105:B *105:A 0
20 *106:B1 *105:A 0.000717307
21 *106:B1 *54:19 0.00016019
22 *108:A1 *113:A 0.000318769
23 *163:A *105:A 0.00081882
24 *7:10 *54:19 0
25 *7:10 *54:43 0
26 *14:8 *54:36 0.000235894
27 *28:16 *54:36 0
28 *28:22 *54:36 0.000342229
29 *40:20 *105:A 0.000395396
30 *50:22 *113:A 0
31 *51:8 *54:36 0
32 *51:10 *105:A 0.000374529
33 *51:10 *113:A 7.5647e-05
34 *51:10 *54:19 0.000287744
35 *51:10 *54:43 0.000128663
*RES
1 *150:X *54:6 40 
2 *54:6 *105:A 47.8074 
3 *54:6 *54:19 1.339 
4 *54:19 *54:21 20 
5 *54:21 *106:A1 20 
6 *54:21 *54:36 47.8486 
7 *54:36 *107:A1 20 
8 *54:19 *54:43 0.5974 
9 *54:43 *109:A 40 
10 *54:43 *113:A 44.6968 
*END

*D_NET *55 0.00412034
*CONN
*I *112:A I *D sg13g2_nor2b_1
*I *113:D I *D sg13g2_and4_1
*I *151:X O *D sg13g2_dlygate4sd3_1
*CAP
1 *112:A 0
2 *113:D 0
3 *151:X 0
4 *55:25 0.000291068
5 *55:14 0.000551819
6 *55:4 0.000842886
7 *55:14 *68:10 0.000143418
8 *148:A *55:14 0
9 *27:8 *55:25 0.000989834
10 *28:10 *55:14 1.54008e-05
11 *28:16 *55:14 0
12 *28:22 *55:25 0.00120523
13 *47:14 *55:25 0
14 *50:12 *55:14 8.06774e-05
15 *52:10 *55:14 0
*RES
1 *151:X *55:4 20 
2 *55:4 *55:14 44.944 
3 *55:14 *113:D 20 
4 *55:4 *55:25 46.0358 
5 *55:25 *112:A 20 
*END

*D_NET *56 0.00207049
*CONN
*I *114:B I *D sg13g2_nor3_1
*I *152:X O *D sg13g2_dlygate4sd3_1
*CAP
1 *114:B 0.000113377
2 *152:X 0.000380055
3 *56:8 0.000493432
4 *28:37 *114:B 0.000177414
5 *32:8 *56:8 7.61961e-05
6 *40:10 *114:B 0.000209871
7 *47:14 *56:8 0.000620142
*RES
1 *152:X *56:8 44.3054 
2 *56:8 *114:B 41.4008 
*END

*D_NET *57 0.000587299
*CONN
*I *132:D I *D sg13g2_dfrbpq_1
*I *153:X O *D sg13g2_dlygate4sd3_1
*CAP
1 *132:D 0.000253536
2 *153:X 0.000253536
3 *132:D *107:A2 0
4 *112:B_N *132:D 0
5 *132:RESET_B *132:D 8.02267e-05
*RES
1 *153:X *132:D 42.8119 
*END

*D_NET *58 0.00259831
*CONN
*I *118:B I *D sg13g2_nand3_1
*I *122:B I *D sg13g2_nand4_1
*I *117:B1 I *D sg13g2_a21oi_1
*I *154:X O *D sg13g2_dlygate4sd3_1
*CAP
1 *118:B 2.59629e-05
2 *122:B 0
3 *117:B1 0.000204204
4 *154:X 0
5 *58:27 0.000162659
6 *58:21 0.000400702
7 *58:6 0.000416283
8 *117:B1 *66:8 0
9 *58:21 *118:A 0
10 *58:27 *69:14 0
11 *28:56 *117:B1 0.00060801
12 *28:56 *118:B 4.77079e-05
13 *28:56 *58:21 0.000337198
14 *28:62 *58:27 0.000395579
15 *38:16 *117:B1 0
*RES
1 *154:X *58:6 40 
2 *58:6 *117:B1 42.8222 
3 *58:6 *58:21 22.2145 
4 *58:21 *58:27 42.0806 
5 *58:27 *122:B 20 
6 *58:21 *118:B 20.3193 
*END

*D_NET *59 0.000946845
*CONN
*I *120:A I *D sg13g2_nor2_1
*I *155:X O *D sg13g2_dlygate4sd3_1
*CAP
1 *120:A 0.000368895
2 *155:X 0.000368895
3 count_o[5] *120:A 0
4 *120:B *120:A 0
5 *162:A *120:A 0.000209056
6 *40:6 *120:A 0
7 *40:8 *120:A 0
8 *40:98 *120:A 0
*RES
1 *155:X *120:A 43.914 
*END

*D_NET *60 0.00104811
*CONN
*I *136:D I *D sg13g2_dfrbpq_1
*I *156:X O *D sg13g2_dlygate4sd3_1
*CAP
1 *136:D 0.000402893
2 *156:X 0.000402893
3 *134:RESET_B *136:D 0.000242328
4 *134:D *136:D 0
5 *136:RESET_B *136:D 0
6 *28:37 *136:D 0
*RES
1 *156:X *136:D 44.429 
*END

*D_NET *61 0.00548174
*CONN
*I *113:B I *D sg13g2_and4_1
*I *106:A2 I *D sg13g2_o21ai_1
*I *107:A2 I *D sg13g2_a21oi_1
*I *157:X O *D sg13g2_dlygate4sd3_1
*CAP
1 *113:B 0
2 *106:A2 0.00015131
3 *107:A2 0.000616526
4 *157:X 0.000525108
5 *61:20 0.00107071
6 *61:14 0.000302877
7 *61:12 0.000525108
8 *107:A2 *166:A 0.000342001
9 *61:12 *62:22 0
10 *61:12 *67:8 0.00020871
11 *61:12 *67:33 0.000307099
12 *61:20 *166:A 2.20966e-05
13 *61:20 *68:10 0.000265363
14 *106:B1 *106:A2 1.54008e-05
15 *107:B1 *106:A2 0.000112359
16 *107:B1 *107:A2 0
17 *113:A *61:20 0.00011228
18 *113:C *61:20 4.75265e-05
19 *126:CLK *107:A2 0
20 *128:D *61:12 0
21 *132:D *107:A2 0
22 *132:CLK *107:A2 0.000273766
23 *37:12 *107:A2 0.000112596
24 *37:12 *61:12 0
25 *37:12 *61:20 0
26 *37:32 *61:12 0
27 *50:12 *61:12 0
28 *50:22 *61:20 7.99033e-05
29 *53:10 *61:12 0.000181608
30 *54:36 *106:A2 0.000209384
31 *54:36 *107:A2 0
*RES